GSM-R
PDA
机车检修
电路域
移动交换中心
移动数据库
设计
质量管理系统
0-1整数规划模型
100%低地板
100%低地板车
100％低地板
104型分配阀
120型制动系统
120型控制阀
15号车钩
17号车钩
1阶不平衡力矩
1阶垂弯
200 km/h动车组
200 t吊臂平车
209P型转向架
25G型客车
25T型客车
25型客车
260t
27 t轴重货车
30 t轴重货车
301L冷轧板
30t轴重
30t轴重重载列车
32 m简支梁桥
353130B
5T系统
5次循环制动
60 t级敞车
660MW机组
70t级
70％低地板车辆
70％低地板轻轨车
AABB算法
AAR标准
ABAQUS
AdaBoost
ADAMS
ADAMS/Rail
ADVISOR
AGV
AHP
AJAX
AMESim
AMESim软件
Anderson-Darling统计量最小原则
Ansoft
ANSYS
APDL
ARM
ARM7芯片
AR建模预测
A、B型车
A计权声压级
Bootstrap
BP人工神经网络
BP神经网络
B型地铁
B型车鼓胀式压溃管
C-V模型
C70E型敞车
C70E型通用敞车
C70E车体
C80B货车
CAE
CAE分析
CAN总线
CarSim汽车动力学仿真
Catia
CA砂浆软化
CC2430
CFD
CFX
CHR2010A综合检测车
CL60钢
CO2浓度
CompactRIO
COP
CosmosWorks
CRH
CRH1型动车组
CRH2-300
CRH2动车组
CRH2型
CRH2型动车组
CRH2型高速动车组
CRH380B型动车组
CRH3A型动车组
CRH3型动车组
CRH5型动车组
CRH5拖车
CRH6F型
Crossland疲劳准则
CW-2系列转向架
C型地铁车
C型轻轨列车
D-S证据理论
DC 600 V客车充电器
DC 600 V直流供电
DC600V
DELMIA
DES
DILLIMAX690T高强钢
DIN-EN 1369标准
Doppler效应
DQ45型钳夹车
Drucker-Prager
DSP
DZ1型转向架
DZ3型转向架
EA4T车轴钢
Easy5
ECE
EMD
EN13749
EPS助力控制
FDS
FDS模拟
FE-safe
FE-SEA混合法
FFT变换
FKM标准
FlexRay总线
Fluent
Fluent二次开发
FMECA
FP-tree算法
FRACAS
FSM
FW-H方程
GM/RT 2142-2009
Goodman 曲线
GO法
Haar-like
Halbach
Hankel 矩阵
Hankel矩阵
Hertz应力
Hilbert 变换
Hilbert-Huang变换
Hilbert边缘谱
HMIS
HOG
Hope分叉
HXD型机车
ICE2
J2EE
J5SQ型(J6SQ型)
Jack
Journal日志文件
K&C特性
K18BK型矿石漏斗车
Kalman滤波器
KK端多道焊
Kriging代理模型
Kriging法
KZW系列
K值
L-C型组合式制动梁
LabVIEW
LabWindows/CVI平台
Lanczos算法
LCU
LED
LOD技术
LS-DYNA仿真
LZ50钢
MATLAB
MATLAB/Simulink
Matlab仿真
Maxwell3D瞬态场仿真
Maxwell模型
MC9S08SE
MES
MicroStation
Morlet小波变换
Multigen Creator
MVBC02
MVBC编程结构
MVB板卡
NARX
NARX神经网络
NLAS
NPID
NSW型手制动机
NVH
NX70A型共用平车
OTSU阈值分割
Pareto聚类
PCA82C250收发器
Petri网建模
PIV
PLC
PMV-PPD评价体系
Pontryagin极小值原理
POS接口卡
PreScan
Pro/E
PVC(聚氯乙烯)地板布
R-SMD
R22/R142b
R410A
R66法规
RAMS
RAMS工程
RAMS管理
RBF神经网络
RCE评估
RTX
SAP
SiCp／A356复合材料
SimMechanics
SIMPACK
SIMPACK软件
SIMP方法
simulink
simulink/stateflow
SMC
Solidworks
SP30
Sperling指标
SS4G机车
STC89LE516AD
STFT
STM32
SVD
SVM
SYS540K型空气弹簧
SYS650型空气弹簧
S—N曲线
T-S故障树
TADS
TCN
TCN车辆维护
TFDS
THDS
Timoshenko梁轨道
TRIZ理论
T形焊接接头
UIC 515
UIC 615
UML图
U形副构架
VC++
VDI2230-2003
veDYNA仿真
Visual Basic
VME
VOD视频点播系统
VoIP
Voronoi区域
Web Service
WLAN
XK30型轨道铝液车
X射线衍射法
ZigBee
ZigBee 技术
ZVZCS
Z振级
μ综合
“走出去”战略
ⅡW标准
一系主动悬挂
一系垂向悬挂
一系悬挂
一系螺旋弹簧偏置
一般车辆段
一阶弯曲振动
丁二烯
万向联轴器
万向轴动不平衡
三元催化器
三化一互换
三大件转向架
三相无砟轨道
三相电流不平衡
三级修
三级检修
三维参数化
三维参数化设计
三维效应
三维模型
三维流固耦合
三维激光扫描
三维管线设计
三维设计
三维集成优化
三缸发动机
三联关节式
三角换向线
三轴转向架
上位机监控
上推杆
上水栓
上浮
上盖物业车辆段
下侧门板
下吊设备
下摇枕转向架
下翻式逃生窗
下肢
下肢长骨
不均匀度
不均匀磨损
不确定度
不锈钢
不锈钢板
不锈钢点焊车体
不锈钢车体
不锈钢轨道车辆
专利
专用夹具
专用汽车
专用装置
专用车
业务模式
两列单节车
两栖
两栖车辆
两点接触
两点控制
两足行走机构
两载荷法
中低速磁浮列车
中低速磁浮引车
中国高铁
中性面
中短途客运
中空铝型材
中继阀
中间车钩
中间车钩缓冲装置
中顶板
中频电源
串联刚度
临界裂纹尺寸
临界车速
临界速度
临界风速
主S-N曲线
主S-N曲线法
主从帧收发流程
主动制动
主动后轮转向
主动悬挂
主动悬架
主动控制
主变压器风道
主变流器
主应力法
主成分分析
主控卡
主管
主要设备
主观烦恼度评价
主观评价
乘坐舒适度
乘客信息系统
乘客满载率
乘客热舒适指标
乘客舒适性
乘用车
二元线性回归
二次开发
二系横向阻尼
二维壁板
二自由度模型
互信息
互易法
五级检修
五轴全路面起重机
亚音速流
交会压力波
交会气动特性
交叉拉杆
交叉效率
交叉杆
交叉连接杆
交流传动
交路
交路接续
交通安全
交通标志
交通标志检测
交通标志识别
交通运输安全
产品族
产品研发
人体动力模型
人体响应
人体模型
人体空气动力学
人工智能
人性化
人机工程
人机工程设计
人机系统
人车系统
代理模型
以可靠性为中心的维修
以太网
任意拉格朗日-欧拉方法
仿真
仿真与测试平台
仿真优化
仿真分析
仿真实验
仿真平台
仿真测试仪
仿真计算
仿真试验模型
仿真预测
企业资源计划
伊藤随机微分方程
伊藤随机微分方程组
优先级
优化
优化分析
优化方法
优化计算
优化设计
会车压力波
传动系统
传感器
传感器标定
传播规律
传染病防控装备
传热系数
传输控制协议
传递函数
传递损失
传递路径
伤害值
估计
伸缩臂
低动作用力
低动力作用
低周疲劳
低噪声
低噪声设计
低地板
低地板有轨电车
低地板车辆
低地板轻轨车
低地板轻轨车辆
低循环疲劳
低摩擦温度
低气压
低矮路堑
低磨耗
低空航拍系统
低速
低速通过
作业平台
作业载荷系数
作用原理
供水系统
供电控制
供电方式
供电系统
侧倾角速度
侧偏刚度
侧压力
侧拉门
侧梁
侧窗
侧翻
侧翻动力学模型
侧翻安全性
侧面碰撞
侧风
侧风扰动
侧风风场
便携式排放测量系统
保护原理
保护接地
保持架
保温材料
保温罐车
保证体系
信号
信号分析
信号处理
信号系统
信噪比
信息化
信息熵
信息熵原理
信息系统
信息融合
修制
修正系数
修程
修订
修车库与联合车库
倾斜校正
倾覆力矩
倾覆监测系统
倾覆稳定性
倾覆风速
假人模型
假设模态法
偏二甲肼铁路罐车
偏转试验
停放
停放制动
停放制动控制单元
停站车辆
停车列检库
停车场
偶极子声源
储能再生制动
储能装置
允许应力法
充灌量
充电机
充电电源
先锋号动车组
光纤光栅
光线传感器
光触媒
光触媒技术
免疫进化算法
全向电动底盘
全地形车
全寿命周期
全寿命周期成本
全峰值计数法
全状态反馈
全球定位系统
全球移动通讯系统
全自动车钩
公共汽车
公文流转
公路
公路运输
公铁两用车
六自由度转向架测试台
兰州地铁
共同配送
共振
共振与消振
共振倍率
共振解调
共振频率
共用车
关系元模型
关联规则
关节式车
关键技术
关键部件
关键部件选型
关门声
兴趣点
兼容修
内加热装置
内损耗因子
内模控制
内燃动车组
内燃机车
内燃调车机车
内装结构
内装设计
内部稳定
再制造
再次均匀采样
再生制动
冗余第二代小波
冗余设计
军用工程机械
军用车辆
冲击
冲击压路机
冲击噪声
冲击座
冲击试验
冲击载荷
冲击速度
冲动限制
冲压成型
冲角
冶炼参数
冷加工
冷藏柜
冷藏运输装备
冷藏运输车
净化
准确定位
准静态
准静态力学性能
减噪
减振
减振器
减振降噪
减振降噪理论和技术
减载方法
减速度
减阻措施
减阻能力
几何关系
几何参数
几何测量法
几何滤波
几何特征参数
几何衰减特性
凹坑
凹底平车
出入段能力
出口列车
出口巴西
出口突尼斯
出口突尼斯内燃动车组
出租车
出风口风道
刀具参数
分叉
分层路网
分岔
分布式滤波结构
分布规律
分析
分析研究
分步迭代计算
分段曲线拟合
分段焊
分离涡模拟
分类预测
分组成对比较法
分配阀
切削力时程曲线
切削吸能
切削式吸能
切削式吸能过程
切削截面参数
切削热
切向蠕滑力
列尾装置
列车
列车-轨道耦合模型
列车/轨道耦合动力学
列车/隧道耦合空气动力学
列车/风环境耦合空气动力学
列车交会
列车位置检测设备
列车倾覆
列车内环境
列车冲撞
列车出场能力
列车制动
列车制动电阻
列车制动系统
列车动力学
列车外流场
列车客室
列车平稳性
列车检修
列车检测
列车气动试验
列车清洗机
列车火灾
列车电话
列车空气动力学
列车空调
列车空调系统
列车系统动力学
列车紧急照明
列车线
列车组合定位
列车网络
列车网络监控系统(TCMS)
列车联挂
列车脱轨
列车自动保护
列车自动运行
列车自动门
列车车体
列车车轴
列车车辆
列车车辆制动试验监测装置
列车车门
列车轮对
列车轴承
列车门
列车随机参数
列车零部件
列车风致脉动力
刚-柔耦合模型
刚体模态
刚度
刚度优化
刚度分析
刚度灵敏度
刚度设计
刚度频变特性
刚柔体
刚柔混合模型
刚柔耦合
刚柔耦合动态仿真
刚柔耦合模型
创新
创新式发展战略
判别准则
判别函数
刨削吸能式防爬器
刮雨器
制冷剂最佳充注量
制冷系统
制冷量
制动
制动仿真
制动减速度
制动力分配
制动力规律
制动噪声
制动尖叫
制动工况
制动性能
制动振动
制动控制策略
制动控制系统
制动方式
制动机
制动档位
制动梁
制动模式
制动模拟
制动监测单元
制动盘
制动管系
制动管路
制动系统
制动能量吸收装置
制动距离
制动软管
制动避撞行为
制动钳
制动闸片
制动阀
制动风翼
制氧膜
制造工艺
制造难点
刹车片
前后向车辆识别
前支架
前窗角
前罩
前馈控制
前馈补偿
剥层修正公式
副构架
副构架式转向架
力学平衡
力学性能
力学模型
办公自动化
功率分流
功率均衡
功率模块
功率谱
功率谱密度
功率谱密度函数
功能
功能安全
功能设计
加强筋
加速度
加速度传感器
加速度分析
加速度反馈控制
加速度均方根值
加速度导纳
加速度阻尼控制
动侧压力
动刚度
动刚度矩阵法
动力仿真
动力吸振
动力响应
动力学
动力学件能
动力学仿真
动力学分析
动力学参数
动力学建模
动力学性能
动力学模型
动力学特性
动力总成
动力总成悬置系统
动力换挡变速器
动力特性
动力电池组
动力稳定性
动力系统
动响应
动应力
动应力测试
动态仿真
动态刚度
动态包络线
动态参数识别
动态响应
动态性能
动态扭矩
动态时间规整算法
动态检测
动态特性
动态相互作用
动态空调
动态耦合
动态补偿
动态规划
动态逆
动态限界
动网格
动荷系数
动车
动车基地
动车组
动车组,单轨交通
动车组CRH2
动车组转向架
动车组运用计划
动车组配件装运
动车转向架
动载荷识别
包络解调
包络谱分析
化学成分
北京地铁4号线
北京复八线
匹配
匹配关系
匹配设计
区间优化
升降作业平台
半主动减振器
半主动悬挂
半主动悬架
半主动悬架系统
半主动控制
半实物仿真
半履带气垫车
半挂牵引车
半挂车
半解析有限元方法
半赫兹接触理论
协同
协同仿真
协同仿真分析
协同作业
协调控制
单点自动润滑
单片机
单牵引拉杆
单磁铁悬浮
单管供风
单车试验器
单轨车
单轨车辆
单轴疲劳准则
单轴转向架
南京地铁
卡方检验
卧铺包厢
危害分析
危害度分析
危险品
卷积滤波
卸车
厂修
历史
压力传感器
压力分布
压力变化
压力控制
压力曲线
压力波
压力调节阀
压差
压溃管
压电作动器
压电陶瓷
压缩式垃圾车
压缩机
压缩负荷
压装参数
原则
原因
原因分析
原理
参振质量
参数
参数优化
参数估计
参数化
参数化建模
参数化模型
参数匹配
参数振动
参数摄动
参数标定
参数自调整
参数自适应估计
参数设计
参数识别
参数辨识
参数配置
参考速度
叉车底盘
双伸货架
双侧扩展
双动力
双向脱轨器
双喷水推进
双层动车组
双层谐衍射透镜
双层集装箱车辆
双控式
双活塞自由缓冲行程气缸
双流体模型
双管供风
双级水封
双线高架桥
反风
反馈控制
发光二极管灯具
发动机
发动机悬置
发展
发展方向
发展现状
发展趋势
发电机
发电机机组
发电车
受力分析
受电弓
受电弓绝缘子
变刚度弹簧组
变刚度频率
变型设计
变异系数
变形
变形车轮
变径轮辋
变权组合模型
变步长
变矩器性能
变矩器效率
变精度粗糙集
变自由度机构
变论域模糊控制
变速空调
变阶数
变频技术
变频控制
变频空调
变频调节
可再制造性评估
可变论域
可拓模型
可维修性
可行性研究
可视化
可辨识度
可靠寿命
可靠性
可靠性优化
可靠性分析
可靠性分配
可靠性分配原则
可靠性数据收集
可靠性模型
可靠性设计
可靠性评估
可靠性试验
可靠性验收
台架
叶型拱度
叶片数目
司机室
司机室侧门
合金成分
吊挂机箱
吊挂设备
吊臂平车
后下部防护装置
后碰
后轴轮
后防撞梁
启动联锁
启示
吸尘风量计算
吸能
吸能原理
吸能效率
吸能结构
吸能装置
吸音
周向接触弧长
周期倍化分岔
周期窗口
呼吸式安全阀
响应分析
响应面方法
响应面模型
响应面法
响度
商业运营速度
啮合程度
喷水推进器
喷汽增焓
噪声
噪声、振动与舒适
噪声分析
噪声分离
噪声控制
噪声测试
噪声面
噪声预测
噪声预测模型
噪声频谱
四点控制
四轮差速转向
四轮独立驱动
四轮转向(4WS)
四驱混合动力轿车
回归分析
回正力矩
回转阻力
回转阻力矩
回转阻力系数
回顾评价
固定孔径
固定式架车机
固定模式
固定辙叉
固有频率
国产
国产化
国家智库
国铁模式
图像传感器
图像分割
图像监控
图像识别
图像质量
圆孔拉刀式吸能器
圆弧参数
圆柱螺旋弹簧
圆柱阵
圆筒型永磁直线电机
圆锥滚子轴承
在线实验
在线故障诊断监测方法
在线检测
在线监测
地下无人车辆
地坑式架车机
地埋管换热器
地形地貌
地形建模
地板结构
地裂缝
地铁
地铁/轻轨模式
地铁A型车
地铁列车
地铁动车组
地铁广佛线
地铁延伸服务模式
地铁检修
地铁电动客车
地铁车
地铁车内噪声
地铁车厢
地铁车辆
地铁车辆企业
地铁车辆底部除尘
地铁车辆段
地铁车辆编组
地铁车辆车门
地铁车门
地铁转向架
地铁轮对
地铁轮轨磨耗
地铁运行
地震
地震动信号
地面力学
地面效应
地面测量
场坪标高
均匀压力
均匀磨损
均方根值
均方根误差
均衡
均衡修
均衡控制
坡道
垂向刚度
垂向加速度
垂向平稳性
垂向振动
垂向衰减特性
型面磨耗
城市轨道交通
城市轨道交通车辆
城市轨道车辆
城轨
城轨交通
城轨列车
城轨车辆
城轨车辆车钩缓冲装置
城铁车辆
城际列车
城际动车组
城际有轨电车
城际车
城际轨道交通
基于模型的控制 PID控制 控制质量评估 共轨高压系统
基于模型诊断
基准定位
基本原理
基础制动单元
基础制动装置
基础设施
塑性应力波
塞拉门
墙体设计
增程式电动车辆
增量更新
增量谐波平衡法
壁板
声全息
声功率
声压响应
声压级
声品质
声固耦合
声场设计
声学
声学传递函数
声学包
声学贡献分析
声学贡献度
声屏障
声暴露级
声源识别
声类比
声类比理论
声级
声辐射
声辐射功率
声辐射效率
壳体结构
处理方法
处置原则
复合承载
复合材料
复合板
复式橡胶缓冲器
复特征值
复线路堤
外压
外形优化
外形尺寸
外挂密闭门
外流场
外电源
外观质量
多传感器信息融合
多传感器网络
多体动力学
多体系统
多体系统动力学
多元高斯声束
多准则融合
多功能
多功能车辆总线
多响应
多响应稳健优化
多学科优化
多学科分析
多学科设计优化
多尺度形态学滤波
多尺度法
多桥转向
多步线性插值法
多源异构
多用途货车
多目标优化
多目标模型
多目标遗传算法
多级重接式驱动
多自由度
多轴独立电驱动
多轴疲劳
多轴疲劳准则
多轴转向
多轴转向架
多轴载荷
多轴重型货车
多载荷耦合
多边形车轮
多通道
多道焊
多重分形分析
多重分形谱
多项式响应面法
夜视技术
夜间驾驶
大修
大修和架修
大型养路机械
大客车
大架修
大架修能力
大涡模拟
大秦线
大秦铁路
大轴重
大轴重矿石车
大轴重货车
大输出力
大风
大风环境
天棚控制
天棚阻尼
天棚阻尼控制
天津地铁
天线梁
太阳辐射
失效
失效概率
失气过程
失稳
头车
头车车体
夹紧装置
奇异值分解
奇异谱特征
姿态变化
姿态测量
威布尔分布
子模型
子模型技术
子模型方法
子结构法
孔板送风
安全
安全吊
安全域
安全完整性水平
安全完整性评估
安全性
安全性指标
安全性能
安全性评估
安全指标
安全管理
安全联锁回路
安全要求
安全评估
安全边界
安全运行
安全防护
安全防护装置
安全隐患
安全风险管理
安装
安装位置
安装刚度
定位
定常气动载荷
定量分析
定量测量
定量研究
定频空调
实体模型
实例推理
实施
实时估计
实时控制
实时监控
实时监测
实现目标
实车测试
实车试验
实验
实验平台
实验研究
实验研究平台群
实验设计
客室
客室广播失效
客室结构
客室车门
客流预测
客观参量
客观评价
客车
客车列尾主机
客车技术整备所
客车故障
客车电源
客车车厢
客车车身
客车车辆段
客车转向架
客运专线
室内噪声
室内空气品质
室外综合管线
容积测量
容许车速
容量系数
宽轨石砟漏斗车
宽轨转向架
密封罩
密度法
密接式车钩
密接式钩缓装置
寒区隧道
对抗色
对接接头
对接激光焊
对数Gabor小波
对数正态分布
对比
对比分析
对流换热
对流换热系数
对称性
对策
对角线误差
导向
导向性能
导向挡板
导向控制
导波
导流块
导流罩
寿命
寿命周期
封头
小半径曲线
小客车
小应力循环
小比例模型
小比例试验台
小波分析
小波包
小波及小波包
小波变换
小波基函数
小波算法
小波网络
小行车辆段
尖叫
尖叫噪声
尖轨
尺寸优化
尺寸控制
尺度能量传递特性
尽端式
局部强干扰
局部放电
层级划分
屈曲失稳
屏蔽门
履带
履带式
履带滑动
履带车辆
岔桥相对位置
峡谷风
峭度
嵌入式以太网
嵌入式操作系统
嵌入式系统
嵌入式轨道
嵌入武系统
巡航控制
工业以太网
工件号
工作斗
工作模态
工作模态分析
工控机
工矿机车
工程应用
工程方法
工程机械
工程车辆
工艺
工艺仿真
工艺优化
工艺布局
工艺改造
工艺流程
工艺管理
工艺设备
工艺设计
工装设备
巴特沃思低通滤波器
巴西
市政工程
布局
布局优化
布局原则
布线
布置
布置及配线
布莱克曼窗函数
希尔伯特-黄变换
希尔伯特变换
带排转矩
带盖敞车
常压罐车
常用制动
幅值
幅变特性
幅流风机
干扰
干涉
平台
平均剩余寿命
平均撞击力
平板运输车
平稳性
平稳性共振波长
平纵断面
平行度误差
平行流冷凝器
平衡压力
平衡悬架
平衡状态
平衡重式叉车
平车
平顺性
并联供电
广佛线
广州地铁
广州地铁3号线
广州地铁车辆
广播系统
序贯概率比检验
应力
应力场
应力干涉
应力强度因子
应力特性
应力谱
应力集中
应变片
应变率效应
应急措施
应急电源
应急预案
应用
应用前景
应用效果
应用研究
底盘横梁
底部结构
底门机构
废弃电子产品
座椅尺寸
建模
建模与仿真
建模仿真
建模方法
建筑工业化
建筑设计标准化
建议
建设
建设成本
建设规划
开/关门时序
开孔式挡风墙
开闭机构
开闭环优化控制
异常振动
异步控制
弓网空气动力学
弯曲刚度
弯曲振动
弹塑性分析
弹性体
弹性振动
弹性模量
弹性车体
弹性车轮
弹簧
弹簧储能
弹簧摩擦式缓冲器
弹簧故障
强度
强度分析
强度考核
强度计算
强度设计
强度试验
强风
形状优化
形状检测
影响分析
影响因素
影响程度
径向对称性
径向调节机构
径向转向架
循环制动
循环变量法
循环圆
循环式洗车线
微分方程
微分求积法
微动疲劳
微合金化
微孔闸片
微机
微机控制
微混合动力汽车
微观组织
微通道蒸发器
心理声学
心理行为
心轨磨耗
快捷货车
快速地铁
快速多极边界元
快速放电
快速设计
快速货车
思路
怠速
怠速振动
怠速振动性能
急性传染病
性能
性能仿真
性能参数
性能实验
性能指标
性能检测台
性能演变
性能试验
性能试验装置
总体方案
总体架构
总体设计
总平面布置
总平面设计
总损耗因子
总线
总线化
总风管
悬吊刚度
悬吊方式
悬挂
悬挂刚度
悬挂参数
悬挂式单轨交通车辆
悬挂弹簧
悬挂故障
悬挂系统
悬挂设备
悬架
悬浮控制
悬浮架
悬置系统
悬置设计
惩罚函数法
惯性参数
惯性效应
惯性系统
惰行
惰行工况
感应加热
成行排列
战略实施
截止频率
截面优化
截面特性
扁平率
扁疤限值
手持式
打磨车
托架
扩容改建
扩展寿命
扩展特性
扩展门槛值
扩能改造
扫描系统
扬程
扭曲试验
扭杆压入工作装置
扭矩
扭转刚度
扭转振动
扭转试验
承载分析
承载力
承载吸能结构
承载特性
技术
技术体系
技术分析
技术创新
技术参数
技术攻关
技术特点
技术现状
技术经济性
技术选型
技术选型原则
投资
投资强度
抗侧滚刚度
抗侧滚扭杆
抗倾覆能力
抗剪刚度
抗剪刚度设计
抗干扰设计
抗撞性优化
抗菱刚度
抗蛇行减振器
抗蛇行减振器控制系统
抗蛇行高频阻抗
折叠式台架集装箱
折叠椅
报警
抽吸效应
抽箱弹簧
拉伸剪切强度
拉杆
拉格朗日乘数法
拓扑优化
拓扑修改
拟不可积Hamilton系统
拟合
拨车机
指挥车
指挥通信
指数平滑法
指标权重
挖装机
挡沙墙
挡风墙
振动
振动与波
振动传递
振动信号
振动偏移量系数
振动分析
振动加速度
振动响应
振动噪声
振动声辐射
振动控制
振动模型
振动模态
振动测试
振动特性
振动疲劳
振动监测
振动舒适性
振动试验台
振动谱
振动频率
振型
振型函数
振型叠加法
振源系统
损伤力学
损伤容限
换挡规律
换气口
换热性能
捣固装置
捣固车作业
捣稳车
排土场稳定
排放
排放测试
排气阀片
排水
探伤工艺
探头机构
探测方式
探讨
接口
接地
接地系统
接地绝缘检测
接触
接触分析
接触力
接触应力
接触搜索
接触斑
接触模型
接触疲劳
接触网
接触网作业车
接触角
接触轨
接触问题
接触非线性
接近开关
控制
控制切换
控制方式
控制方法
控制权重
控制策略
控制系统
控制阀
推土机
措施
措施建议
描述函数法
提离补偿
提速货车
提速铁路货车
插值算法
搅拌摩擦焊
搬运小车
搭接激光焊
搭接量
摄像机标定
摄动
摆动式货车转向架
摆动式转向架
摇枕
摩擦
摩擦减振器
摩擦副
摩擦块分布
摩擦振动
摩擦材料
摩擦条件
摩擦碰撞
摩擦磨损
摩擦系数
摩擦缓冲器
撞击速度
操纵响应方程
操纵稳定性
操纵设备
支承反力
支持向量机
支撑平台
支管
改进
改进BP神经网络
改进EMD
改进型
改进天棚控制
改进希尔伯特-黄变换
改进意见
改进措施
改进方案
改进经验模式分解
改进经验模态分解
改进设计
改造
故障
故障仿真
故障分析
故障分类
故障列车救援
故障判别
故障剖析
故障危害度
故障报告、分析及纠正系统
故障机理
故障树
故障树分析
故障树分析法
故障检测与隔离
故障模式
故障模式库
故障特征
故障特征量
故障统计分析
故障自动识别
故障诊断
效果
效率
效率评价
救护直升机
救援列车
救援能力
敞车
敞车车体
散体货物
散堆箱
散热筋
散粒货物
散装水泥车
数值仿真
数值分析
数值模拟
数值模拟分析
数值计算
数字化改进
数字化终端
数字控制
数学模型
数学计算公式
数据交换
数据传输
数据信号处理器
数据分析
数据匹配
数据可视化
数据统计分析
数据缓存技术
数据记录
数据采集
数论选点法
整体方案
整周期采样
整备车辆
整改措施
整流
文物
斑点状偏析
斜楔
断口分析
断裂
断裂力学
断裂行为
断路器
断面型材
新一代
新一代高速动车组
新疆
新陆权时代
新风量
方向盘
方向盘操作
方向盘转角
方差分析
方案
方案设计
方法
施工过程
旁路设计
旅客信息系统
旅客列车
旋叶式压缩机
旋转座椅
旋轮线破裂面
无人两栖平台
无人机
无参考评价
无砟轨道
无纺布多孔消声管
无线传感器网络
无线通信
无障碍
无障碍流线
时变阻尼比
时域分析
时差法
时滞
时隙动态分配
时频分布
时频分析
时频特征定位
明线
显式有限元
显微组织
显示动力学
显示器
晃车
普通道床
普通钢轮
智能交通
智能交通系统
智能控制
智能机器人
智能车踏控制
智能车辆
暖风机
暴风雪
曲线半径
曲线拟合
曲线运行
曲线通过
曲线通过性
曲线通过性能
曲线限速
曲面重建
更换
最优控制
最佳高度和距离
最大Lyapunov指数
最大工作力臂
最小割集
最小曲线半径
最小阻力定律
有砟轨道
有轨电车
有限体积法
有限元
有限元-瞬态边界元法
有限元/边界元
有限元仿真
有限元分析
有限元建模
有限元方法
有限元模型
有限元法
有限元计算
有限元软件
有限单元法
有限差分法
有限状态机
服役性能
期望横摆角速度
木材
本体建模
本征函数
机动车道路考试系统
机器视觉
机型选择
机构参数
机械制造
机械式过滤器
机械故障
机械模拟
机械结构
机械设计手册
机理
机理模型
机电耦合
机电设备
机能试验
机车
机车柴油机
机车车辆
机车车辆电子装置
杂散电流防护
权重系数
杆塔
材料
材料属性
材料本构模型
材料测试
材料特性
材料非线性
板件贡献量
板壳模型
板式轨道
极限环颤振
构架
构架裂纹
架修
架控制动系统
架控式
架车机
柔性制造
柔性系数
柔性轮对
查询
标准模板
标定
校准
校核单元
校验平台
格子Boltzmann方法
格林函数
格林函数法
框架保护
框架结构
桥
桥上CRTS II型板轨道结构
桥梁
桥梁工程
桥梁检测维修车
梨形截面吊臂
梯度强度
检修
检修作业
检修作业车
检修修程
检修周期
检修工艺
检修模式
检修流水线
检修能力
检测
检测列车
检测台
检测平台
检测模型
检测系统
检测设备
检测车
检验
棚车
概率密度演化方法
概率寿命
概率特征风速曲线
概率统计
概率设计
模块化
模块化设计
模型
模型检索
模型验证
模态
模态分析
模态匹配
模态参数
模态振型
模态有限元
模态综合法
模态耦合
模态试验
模态阻尼比
模态频率
模拟
模拟仿真
模拟分析
模拟计算
模拟试验
模糊PID
模糊PID控制
模糊PID自整定控制
模糊可重构设计
模糊控制
模糊控制策略
模糊理论
模糊神经网络
模糊综合评价
模糊综合评价法
模糊聚类算法
模糊自适应PID控制
模糊集
横向刚度
横向力系数
横向加速度
横向动态偏移量
横向动态刚度
横向半主动悬挂
横向变形能力
横向平稳性
横向振动
横向振动偏移量
横向振动耦合机制
横向控制
横向稳定性
横向运动
横向运动稳定性
横向间距
横向风
横波检测
横风
横风气动特性
横风稳定性
橡胶地板布
橡胶密封
橡胶球铰
橡胶节点
橡胶衬套
橡胶轮转向架
橡胶隔振器
欠超高
欧拉-欧拉多相流模型
欧拉梁
欧洲直升机公司
止挡
正交化奇异值(Singularvaluedecomposition,SVD)
正交设计
正交试验
正偏析
正面碰撞
残余应力
比例功能
比例溢流阀
气体流动
气动
气动力
气动力学
气动压力
气动噪声
气动外形
气动安全性
气动干扰效应
气动性能
气动特性
气动自翻车
气动荷载
气动载荷
气动阻力
气压-负载特性
气压波动
气固两相流
气垫力试验
气垫靴
气密性
气密性指数
气流噪声
气流均匀性
气流组织
气流组织模拟
气阀运动
氧化铝夹杂物
氧化铝粉罐车
水上搜救机
水冷多联机
水力缓冲器
水力计算
水化热放热过程
水平探测
水泵
水罐车
水质净化
永磁无刷直流电机
永磁铁
污染物迁移
污物箱
汽动引风机
汽油发动机
汽车
汽车与行人碰撞
汽车主动安全
汽车侧偏
汽车制动盘
汽车制动系统
汽车前部造型
汽车动力学 自动变速器 自动手动变速器（AMT） 发动机阻力矩 主动降档
汽车安全
汽车工程
汽车排放总量分析系统
汽车点火线
汽车空调
汽车空调压缩机
汽车自适应前照灯
汽车转向器
汽车造型
汽车零部件
沙特
沙生灌木
沟槽磨耗
沥青罐车
油压减振器
油槽结构
油流显示
油耗
油耗测试
油门开度控制
治理模式
泄漏
法兰
泡沫铝
波形
波形分析
波形输出
波结构
注水系统
泵风功耗
泵风效应
洗消
洗车机
流体力学
流体动力学
流动阻力
流固耦合
流固耦合振动
流场
流场数值模拟
流场结构
流态化
流速系数
流量
流阻特性
流阻率
浆砌片石
测力
测力车轮
测力轮对
测压
测试
测试仪器
测试准确性
测试分析
测试精度
测试系统
测量
测量仪
测量元件故障
测量方法
测风站
浮动模式
浮置板
浮置板轨道
浮置板道床
涂装
消噪
消息调度
消毒杀虫
消防车
涡旋压缩机
液体晃动
液体类铁路罐车
液力传动
液力减振器
液力减速器
液力变矩器
液化气罐车
液压举升系统
液压伺服
液压减振器
液压制动系统
液压控制系统
液压系统
液压系统分析仪
液压缸
液压阀块
液压驱动系统
液气缓冲器
液碱罐车
混凝土泵车结构臂
混合FE-SEA方法
混合元
混合动力
混合动力传动
混合动力汽车
混合双动力动车组
混合多体系统
混合控制
混合新风模式
混合模拟
混合法
混合灵敏度
混合驱动
混沌
混编列车
混联混合动力车辆
清扫消毒成套设备
渗风模型
渣罐运输车
温升校验法
温变特性
温度
温度场
温度控制
温度监测
湍流模型
湿式制动器
湿式离合器
湿软路面
溜逸
滑动接触
滑块
滑模变结构控制
滑模均值
滑模观测器
滑移率
滑移网格
滑轮轴
滑阀副
滚动半径差函数
滚动台
滚动台测试
滚动噪声
滚动圆半径
滚动接触疲劳
滚动轴承
滚动轴承模型
滞回
漏斗车
漏水
漏水处理
漏泄
漏电保护断路器
漏雨密封性
漏风量
澳大利亚
激光位移传感器
火源功率
火灾
灵敏度
灵敏度分析
点焊
点焊工艺
点焊接头
点焊车
点质量
烟气
烧损
热冲压
热分析
热力学
热力耦合
热力耦合分析
热响应
热喷涂
热容仿真
热工学
热平衡
热应力
热应力分析
热应力场
热弹塑性有限元
热模块
热泵
热泵空调
热流分配系数
热源
热点应力
热环境
热疲劳寿命
热网络法
热舒适性
热负荷
热轴
热轴判别
热载荷
热过负荷保护
热释放速率
焊后去应力退火
焊接头
焊接工艺性
焊接接头
焊接方式
焊接构架
焊接残余变形
焊接残余应力
焊接气孔
焊接结构
焊接缺陷
焊接质量
焊接速度
焊接顺序及方向
焊缝不平顺
焊缝疲劳
焓差试验
焦炭
煤炭漏斗车
照明
照明控制
熔核直径
熔透
燃料电池堆设计
燃料电池轿车
燃油经济性
燃烧力矩
爆裂故障
物业开发
物元模型
物流园区
物理规划法
牵引传动系统
牵引供电
牵引力控制系统
牵引工况
牵引拉杆节点
牵引杆
牵引梁
牵引比率
牵引电机
牵引系统
牵引计算
牵引车
特大货车
特征
特征值分析
特征参数
特征定位比较
特征提取
特征根
特征点
特征矢量
特征结合
特征评价
特征谱分析
特征频率
特性曲线
特种棚车
特种车辆
状态估计
状态修
状态机
状态监测
状态观测器
状态识别
独立旋转
独立车轮转向架
独立轮
环境与设备监控系统
环境保障
环境舒适度
环境设计
现代有轨电车
现场工位
现场测试
现场测量
现场试验
现状
生产线
生产质量
生死单元法
生物安全实验室
用地
用户满意度
电传动
电制动能力
电动助力转向
电动汽车
电动汽车空调
电动越野车辆
电动车组
电动轮自卸车
电喷发动机
电子差速
电子稳定性程序
电子门控器(EDCU)
电惯量模拟
电控系统
电机共振
电机接触器
电桥输出
电气布线
电气性能
电气控制系统
电气系统
电气耦合技术
电气耦合轮对
电池管理系统
电涡流测距
电液比例阀
电磁兼容
电磁场
电磁灶
电磁环境
电磁超声技术
电磁钢轨探伤
电磁驱动
电解液流动
电路优化
电路设计
电轴技术
电采暖装置
电阻
疲劳
疲劳分析
疲劳寿命
疲劳强度
疲劳强度评定
疲劳性能
疲劳损伤
疲劳断裂
疲劳极限
疲劳极限线图
疲劳检测
疲劳短裂纹
疲劳缺陷
疲劳裂纹
疲劳裂纹扩展
疲劳裂纹萌生
疲劳裂缝
疲劳评估
疲劳试验
疲劳预测
疲劳驾驶
疾病预防与控制
白车身
监测
监测数据
监测系统
盒形件
盘式制动器
盘式永磁同步电机
目标函数
目标识别
目标车速
盲信号分离
直升机
直接推力控制
直接横摆力矩控制
直接转矩控制
直接驱动转向架
直流变换器
直流开关柜
直流电缆
直线感应电机
直线电机
直线电机车
直通电空制动系统
相互作用
相似性
相似理论
相位一致性
相位差
相位控制
相对位置
相对幅值
相对摩擦系数
相对湿度
盾鳞形沟槽
真空集便装置
眼动
眼动跟踪技术
瞬态动力学
瞬态动力学仿真
瞬态动力学分析
瞬态压力波
瞬态声辐射特性
瞬态温度场
瞬时幅值
瞬时最小供氧量
瞬时频率
矢量控制
知识模型
矩形隧道
短波轨道不平顺
石砟漏斗车
石碴漏斗车
矿用挖掘式装载机
矿用车
矿石敞车
矿石漏斗车
矿石车
研制
研发
研究
研究展望
研究技术
研究进展
硬件设计
硬度
硬拖方案
碰撞
碰撞仿真
碰撞动力学
碰撞安全
碰撞性能
碰撞检测
磁场
磁悬浮
磁悬浮列车
磁悬浮头车
磁悬浮控制
磁悬浮车辆
磁流变减振器
磁流变液
磁流变阻尼器
磁浮列车
磁浮车辆
磁粉聚集
磁铁矿石敞车
磨削
磨合过程
磨损区域
磨粒
磨耗
磨耗寿命
磨耗特征统计
磨耗面积
磨耗预测
神经网络
神经网络逆系统
离心通风机
离散元法
离散单元法
离散相模型
离线分析
私密性
积木式结构
积相关运算
称重
称重设备
称重试验
称重调平
移动式架车机
移相控制
稳健优化
稳健优化设计
稳健性设计
稳健设计
稳定性
稳定性分析
稳定性理论
稳态概率密度
空心车轴
空气交换率
空气传声
空气传播噪声
空气净化
空气制动
空气制动系统
空气动力制动
空气动力学
空气动力学仿真
空气动力学效应
空气压缩机
空气噪声
空气层
空气弹簧
空气悬架
空气污染治理
空气流场
空气湿度
空气阻力
空程冲击
空调
空调供热
空调列车
空调发电车
空调客车
空调控制器
空调机组
空调系统
空调通风系统
空调风道
空转/滑行检测
空载情况
空载率
空重车自动调整装置
空重车调整装置
空间形变技术
窄轨客车转向架
立体化
立柱
竖向设计
竖曲线
站台
端盖
端部舱
符号熵
第一类模式
笼式弹簧夹持接线端子
等效应力
等效应力幅
等效损伤应力
等效模型
等效泄漏面积
等效线化
等效线性化
等效锥度
等级
等角度采样
策略
简化力学模型
简统化
算法
管梁型构架
管理特点
管理科学与工程
管理系统
箱型中梁
箱形梁
箱梁
箱梁型构架
箱梁桥
篷布
米轨转向架
类模型
粒子滤波
粒子群算法
粗糙度
粗糙集理论
粘合算法
粘滑模型
粘结算法
粮食漏斗车
精益研发
精益管理
系数
系统
系统仿真
系统内力分析
系统动力学
系统建模
系统控制
系统组成
系统设计
系统评估与可行性分析
系统阻力模型
紧固螺栓
紧急制动
累积损伤度
红外热像
红外热像仪
红外线性激光光源
红外线轴温探测系统
红外线轴温监测系统
红外轴温探测
约束条件
约束模型
约束阻尼
约束阻尼层
纯电动驱动系统
纯车体
纳米润滑
纵向
纵向冲击实验
纵向冲动
纵向力
纵向动力学
纵向对称面
纵向系统动力学
纵向载荷
纵向间距
线形排列
线性模型
线性矩阵不等式
线性稳定性
线扫描
线路
线路检测
线路模型
线路模拟
线路试验
线路适应性
线阵扫描
组合分布
组合神经网络
组合预测
组网应用方案
经济性分析
经验公式
经验模态熵
绑定约束法
结构
结构优化
结构传声
结构修改
结构光传感器
结构分析
结构刚度
结构动力学仿真
结构参数
结构噪声
结构布局
结构应力法
结构强度
结构振动
结构改进
结构改进设计
结构模式
结构特点
结构疲劳
结构稳定性
结构系数
结构设计
结霜
绝缘性能
绝缘栅双极型晶体管
绝缘漆
统计
统计能量分析
统计能量法
继电器
维修保障
维修信息管理
维修周期优化
维修性
维修界限
维修策略
维修质量
维护
综合传动装置
综合总图设计
综合拥有成本
综合检测
综合检测车
综合算法
综合管线
综合联调
综合运输车
综合部分负荷性能系数
缓冲器
缓冲器动力学
缓冲特性
缓和曲线
缓解
缓解不良
编制
编制年度
编成辆数
编码器
编组方案
缩松
缺陷分析
缺陷回波响应
缺陷定位
缺陷识别
罐式集装箱
罐车
罐车容积
网关
网络化运营
网络处理器
网络层次分析法
网络拓扑结构
网络架构
网络线
网络结构
网络设计方案
置换通风
美学设计
翻板
翻车机
考核标准
耐候钢
耐撞性
耐沾污性能
耐碰撞
耐碰撞性
耐碰撞性能
耗散均衡
耦合传热
耦合关系
耦合动力学
耦合振动
耦合损耗因子
耦合自由度
耦合轮对
耳鸣
联合仿真
联轴节
聚合经验模式分解(Ensembleempiricalmodeldecomposition,EEMD)
聚合经验模态分解
胎压监测
胶囊
能力
能耗
能耗模型
能耗管理系统
能量分布
能量回收
能量回馈
能量回馈式主动悬架
能量平衡
能量平衡条件
能量熵
能量管理
能量解耦
脉冲反馈
脉冲宽度调制
脉动压力
脱粘
脱轨
脱轨准则
脱轨系数
脱轨自动制动装置
脱轨试验
脱轨边界
臂架式车辆
自动判断
自动化立体仓库
自动变速
自动报警
自动换挡
自动控制
自动检测
自动测量
自动评判
自处理式卫生间
自学习
自导向径向转向架
自激振动
自然风荷载
自由振动
自由振动测试
自由曲面透镜
自翻车
自适应
自适应巡航
自适应控制
自适应无味卡尔曼滤波算法
自适应模糊控制
自适应滤波器
自重系数
舒适
舒适度
舒适性
舒适性评价
航向跟踪
航空噪声
节拍
节气门开度
节流孔
节能
节能优化
节能分析
节能原理
节能性
节能潜力
花键联接
荷电状态
营救
落下孔车
蒙特卡洛
蒙特卡罗仿真
蒙特卡罗法
蓄电池电力工程车
薄壁方管
薄壁结构
虚拟仪器
虚拟样机
虚拟激励法
虚拟现实
虚拟装配
虚拟试验
虚拟试验场
蛇形运动
蛇行
蛇行模态
蛇行运动
螺套
螺旋弹簧
螺旋桨
螺栓
螺钉
蠕变
蠕滑
蠕滑力
行业标准
行人与车辆碰撞
行人保护
行动不便旅客
行包车辆
行李架
行李车
行车安全
行驶舒适性
街区分块
补偿
补偿液压缸
补强
表面不平度
表面压力
表面处理
表面脉动压力
被动悬挂
裂损
裂纹
裂纹扩展
裂纹萌生
装卸载过程
装备
装备制造企业
装用
装甲车辆
装载
装载机
装配式
装配矩阵
装配过程
裙板
裙板三角锁
襄阳北检修车间
西安地铁
西藏
西门子
观光列车
观光区
观测器技术
规划布局
规则推理
规模计算方法
规章
视界
视知觉
视觉识别
视频技术
解决措施
解决方案
解耦
解耦控制
触摸屏监视
计算
计算整合
计算方法
计算机视觉
计算机辅助设计
计算模型
计算模态
计算气动声学
计算流体力学
计算流体力学仿真
计算流体动力学
计轴系统
许用应力
设备
设备偏载
设备悬挂
设备悬挂参数
设备故障率
设备管理
设备组成
设备舱
设备舱支架
设备舱降噪
设计
设计优化
设计优化：计算机辅助造型（CAS）技术
设计参数
设计变量
设计工位
设计改进
设计方案
设计方法
设计流水线
设计流程
设计流程优化
设计特点
设计能力
设计节拍
设计载荷
证据冲突理论
证据理论
评价
评价指标
评价方法
评估
评估方法
评判
评判标准
评定
诊断
试车线
试验
试验台
试验数据
试验方法
试验测试
试验研究
试验结果
试验装置
试验设计
试验验证
误差修正
误差分析
调压误差
调平
调度
调簧
调节因子
调试
调车冲击
调车列队自动追踪
调车时间
调车自动进路
谐响应
谐响应分析
谐振
谐波
谐波共振
谐波分量
谐波小波包分解
谱分析
谱系化结构
贝叶斯估计
负压
负荷等级
货场
货物列车主管压力
货车
货车AEI
货车保有量
货车参数
货车标签
货车车体
货车车轮
货车转向架
货车运行状态
货车钩舌
货运
货运专线
质子交换膜燃料电池
质心侧偏角
质心侧偏角估计
质量
质量屋
质量校正补偿
质量检查
质量特性
质量等级
质量线法
资源共享
走行机构
走行系
走行轮磨损
走行部
起停系统
起动变矩比
起动性能
起步性能
起裂阈值
超 -粘弹性本构模型
超声冲击
超声冲击处理
超声检测
超声波
超声波冲击
超声波探伤
超声波检测
超声测量模型
超级电容器
超高周
超高强度钢
超高速实验车
越障
跟踪试验
跨坐式单轨
跨坐式单轨列车
跨坐式单轨车辆
跨座式单轨车辆
路况
路基
路堤
路径规划
路径计划
路轨两用消防车
路面附着系数
跳轨脱轨
踏面
踏面制动
踏面制动单元
踏面外形
踏面擦伤
踏面更新
踏面磨耗
踏面缺陷
踏面裂纹
踩踏板速率
蹲便器
车-桥系统
车下环境
车下电气设备
车下设备
车体
车体举升装置
车体传热系数
车体侧墙
车体刚度
车体平稳性
车体弹性振动
车体强度
车体振动
车体振动加速度
车体断面
车体结构
车体轮廓
车体钢结构
车体防腐
车内压力
车内噪声
车内振动
车内设施
车列模拟
车务段
车厢支撑系统
车厢空调
车外噪声
车挡
车控式
车架
车架结构
车桥系统
车桥组合
车桥耦合动力学
车桥耦合振动
车桥耦合模型
车用动力电源
车窗
车窗系统
车端跳线
车身
车身结构
车身造型
车身骨架
车轨耦合振动
车轮
车轮不圆度
车轮不圆顺
车轮优化设计
车轮传感器
车轮侧偏角
车轮制动盘
车轮型面
车轮型面优化
车轮型面位置偏移
车轮多边形
车轮差速控制
车轮扁疤
车轮扁疤识别
车轮擦伤
车轮椭圆化
车轮椭圆度
车轮横移
车轮段修磨耗寿命
车轮磨耗
车轮结构优化
车轮踏面
车轮踏面修形
车轮踏面磨耗
车轮钢
车轮非圆化
车轴
车轴钢
车载信息服务
车载储罐
车载储能系统
车载安全监测
车载导航系统
车载数据
车载测量
车载网关
车载软件
车辆
车辆 -轨道耦合振动
车辆-轨道-桥梁耦合动力学
车辆-轨道-桥梁耦合振动有限元模型
车辆-轨道元
车辆-轨道动力学
车辆-轨道垂向耦合模型
车辆-轨道耦合动力学
车辆-轨道耦合模型
车辆-轨道耦合理论
车辆/轨道耦合动力学
车辆临界速度
车辆传递函数
车辆冲击
车辆减速器
车辆分离
车辆制动
车辆动力学
车辆动力学件能
车辆动力学模型
车辆垂向振动
车辆基地
车辆安全性
车辆安全稳定系统
车辆导航
车辆工程
车辆平稳性
车辆性能
车辆控制单元
车辆改造
车辆构架
车辆检测
车辆段
车辆段与综合基地
车辆状态估计
车辆状态分析
车辆稳定性
车辆空调
车辆管理
车辆系统
车辆系统动力学
车辆维修
车辆能耗
车辆自动门
车辆装备
车辆规模
车辆调度
车辆资产
车辆资产全寿命周期管理
车辆路径问题
车辆轨道耦合动力学
车辆转向架
车辆轴温智能探测系统
车辆载荷
车辆载荷检测装置
车辆选型
车辆选配
车辆速度测量
车辆门
车辆限界
车辆预验收
车速估计
车道保持系统
车道检测
车道识别
车钧
车钩
车钩几何非线性
车钩力
车钩垂向偏转运动
车钩摆角
车钩缓冲器
车钩缓冲装置
车钩自由转角
车钩高度
车门
车门控制软件
车门系统
车门试验
车间连接
车顶区域
轨枕运输平车
轨检车
轨缝冲击
轨边声学检测系统
轨道
轨道不平顺
轨道不平顺波长
轨道不平顺谱
轨道交通
轨道交通空气动力学
轨道交通车辆
轨道参数
轨道局部缺陷
轨道工程车
轨道破坏
轨道磨耗
轨道线路
轨道结构
轨道行驶
轨道谐波不平顺
轨道车
轨道车辆
轨道车辆车门系统
轨道车辆金属材料
轨道随机不平顺
轨道高低不平顺
转K2型
转K2型转向架
转K7型转向架
转动刚度
转动角度
转动速度
转向
转向安全
转向性能
转向架
转向架侧架
转向架悬挂件
转向架悬挂方案
转向架构架
转向架舱
转向柱
转向系统模态
转向节
转向过程
转向阻力
转子
转矩
转矩调节
转臂式定位
轮-地摩擦因数
轮周激励
轮对
轮对内侧距
轮对卡死故障
轮对压装
轮对压装机
轮对型面测量
轮对外形轮廓
轮对安装偏角
轮对尺寸测量
轮对弹性
轮对弹性振动
轮对径向装置
轮对状态
轮对磨耗
轮对组装
轮对迫导向定位形式
轮履复合
轮廓扫描
轮廓特征拐点
轮式车辆
轮径
轮径差
轮径校正
轮抽
轮毂电机
轮缘厚
轮缘尺寸
轮缘磨耗
轮缘综合值
轮缘高
轮胎
轮胎侧偏磨耗
轮胎性能
轮胎试验台
轮轨
轮轨作用
轮轨关系
轮轨冲击
轮轨冲击振动
轮轨力
轮轨动力作用
轮轨动力学
轮轨噪声
轮轨型面
轮轨振动
轮轨接触
轮轨接触几何关系
轮轨接触参数
轮轨接触模型
轮轨接触点
轮轨接触行为
轮轨滚动接触
轮轨滚动接触理论
轮轨相互作用力
轮轨磨耗
轮轨粘着
轮轴动应力
轮轴横向力
轮辋
轮重
轮重减载率
轮重差
轮齿啮合
软交换
软件接口
软件设计
软地面车辆
软故障
软碰撞检查
轰燃
轴向流
轴向间距
轴对称动力屈曲
轴承
轴承内外侧寿命差异
轴承寿命
轴流式通风机
轴温传感器
轴温分析
轴温探测系统
轴温数据
轴温监测
轴用横波斜探头
轴端电机
轴箱
轴箱加速度
轴箱弹簧
轴箱振动
轴箱轴承
轴系
轴重
轴重转移
轴颈直径测量
轻油罐车
轻轨交通
轻轨系统
轻轨车
轻轨车辆
轻量化
轻量化设计
轻量化车体
载液容器
载荷
载荷密度
载荷谱
轿车乘员舱
轿车简化模型
辅助变流器进排风口
辅助电源
辅助电源装置
辅助空间
辅助系统
辅助逆变电源
辅助逆变系统
辅助驾驶
辐板
辐板孔
输出电压
边折叠方法
边界元法
边界条件
过冷式冷凝器
过分相
过渡季节
过渡车钩
过滤效率
过热度
过盈联接
过盈装配
过盈配合
过程仿真
过程管理
过超高
过载保护装置
迈纳尔损伤累积理论
运动仿真
运动分析
运动参数预测
运动声源
运动学
运动学仿真
运动模式
运动稳定性
运水车
运煤专用敞车
运用库
运用检修
运用计划
运能
运营
运营成本
运行图像故障检测系统
运行姿态
运行安全
运行安全性
运行工况
运行平稳性
运行时刻
运行稳定性
运行车辆
运行轨迹
运行速度
运行速度限值
运输汽车专用
运输汽车专用车
运输设备管理
近似周期解
近似重分析
近光灯
进气噪声
进气速度
远程
远程监控
远程输入输出模块
连挂冲击
连挂救援动车组
连挂状态
连接可靠性
连接技术
连接杆
连接管路
连杆
连续介质理论
连续挤压
连续测量
迭代学习
迭代寻优
述评
迹线法
追尾事故
适应性
适应性改造
适度规模
逃生试验
逆变器
逆变回馈
逆变装置
逆向工程技术
逆向物流
选址
选型
选型设计
递推最小二乘
通信协议
通常使用条件
通用平车
通用敞车
通过噪声
通风管道
通风系统
通风装置
通风设计
速差转向
速度
速度场
速度差
速度控制
速度限值
逼近组合法
道岔
道路友好性
道路安全
道路识别
道路试验
遗传算法
遥感
遮挡
邻域相关性
郑东车辆段
郑州地铁
部分负荷特性
都市圈
都市快轨列车
配件
配重检测
采样模块
采样段
采样间隔
重型货车
重型车驾驶室
重庆单轨车
重庆地铁6号线
重联
重要度
重车重心高
重载
重载列车
重载机车
重载货车
重载货运列车
重载运输
重载铁路
重量评价指标
野外宿营车
金属切削
金属镶嵌物
钢厂
钢坯
钢弹簧故障
钢弹簧浮置板
钢板
钢结构
钢轨
钢轨型面
钢轨打磨
钢轨探伤车辆
钢轨接头
钢轨检测
钢轨波磨
钢轨焊缝
钢轨磨耗
钢轨轨头
钢铝一体化
钢铝混合车体
钩体
钩提杆
钩缓装置
钩舌
钩舌销
钳夹车
钳夹车挂货钩
铁木辛科梁
铁矿石车
铁谱图像
铁路
铁路动车段
铁路噪声
铁路大型养路机械
铁路客车
铁路客车上水
铁路客车电源
铁路工程车辆
铁路棚车
铁路空调客车
铁路罐车
铁路行李车
铁路货车
铁路货车车辆段
铁路货运
铁路车辆
铁路车辆安全防范预警系统
铁路车辆运行安全监控系统
铁路运输
铁路重载运输
铁道客车
铁道罐车
铁道货车
铁道车辆
铜基粉末冶金
铜镁接触线
铝发泡板
铝合金
铝合金地铁
铝合金挤压
铝合金电动汽车车身
铝合金车体
铝合金车门
铝型材
铝型材加工
铝型材外地板
铝型材外地板结构
铝蜂窝板
铰接式列车
铰接式矿用自卸车
铰接式车体
铰接构架
铰接车
铲取
铲斗
铸件
铸件缺陷
铸钢件
锁相环
锁闭装置
锂离子电池
锂离子超级电容
锈蚀
锌空燃料电池
锤击法
锥体罐
锥形弹簧
键合图
镁合金车轮
镉镍碱性蓄电池
镟修
镟修策略优化
长大货物车
长大重载货物列车
长春轻轨
长钢轨运输车组
门控单元
门架式转向架
门系统
门轴孔
门锁位置行程开关
闭口型材
问题
间断测量
间隙
闸片
闸瓦制动
闸调器
阀系参数
阈值规则
阈强度
防下钻
防侧滚梁
防夹人设计
防夹功能
防夹玻璃升降器
防护涂层
防抱死制动系统
防抱死系统
防控队装备
防撞功能
防溜
防溜决策
防溜设备
防滑控制
防滑系统
防火
防火设计
防爬吸能装置
防爬能力
防电板
防跳
防跳插销
防雪堵
防雷
阵发性
阵风
阶梯式设计
阻塞比
阻尼
阻尼减振
阻尼性能
阻尼控制
阻尼比
阻尼特性
阻尼车轮
阻尼连续可调
阻尼降噪
阻抗力
阻燃性能
阿奇舒勒矛盾矩阵
附加弯矩
附属件
陆轨转换系统
降低能耗
降噪
降噪效果
降噪系数
降维状态观测器
限位开关
随机Hopf分岔
随机全局稳定性
随机子空间法
随机振动
随机模型
随机风
随机风速
隐患挖掘
隔声
隔声性能
隔声测试
隔声量
隔声量预测
隔振
隔振设计
隔热车窗
隔震轨道
隔音
隧道
隧道群
集中修
集中开关门控制
集中荷载
集中质量
集便器
集便系统
集合经验模式分解
集对分析
集总经验模式分解
集成
集成分析
集成检测系统
集成设计
集装箱专用平车
集装箱列车
集装箱平车
集装箱车
集装箱运输平车
集运
雨流计数法
零电压零电流
零质心侧偏角控制策略
需氧量
需求分析
露天矿
青藏客车
青藏线
青藏铁路
青藏铁路客车
静力学分析
静力学计算
静压
静强度
静强度分析
静强度疲劳
静强度试验
静态结构分析
静挠度
静电监测
非定常气动力
非定常气动载荷
非定常空气动力
非对称接触
非对称规则采样
非常规车辆
非惯性坐标
非成像光学
非接触式测量
非稳态
非线性
非线性分布
非线性刚度
非线性动力学模型
非线性干摩擦力
非线性有限元
非线性模型
非线性系统
非耗散均衡
靠背管
面向对象的程序
面轮廓度误差
鞭打
顶盖
预冷(热)
预制构件
预应力轨道梁
预测
预测控制
预测模型
预涂底漆
预警
预防措施
领域性
频变特性
频响特性
频域
频域分析
频带变化类故障
频散曲线
频率
频率传递
频率切片小波变换
频率因子
频谱
频谱分析
频谱变化类故障
频谱特性
颗粒流程序
颠覆
风动卸砟车
风区
风压力
风压和水压试验
风屏障
风挡
风机
风洞
风洞实验
风洞标定
风洞试验
风环境
风翼板
风荷载
风载荷
风载荷试验台
风速
风速分布规律
风阻
风险分析
风险评估
风雨作用效应
馈能悬架
马尔可夫过程
驱动力控制
驱动桥
驱动桥壳
驱动滑移
驱动电机
驱动系统
驱动系统功率计算
驾驶员在环混合仿真
驾驶员行为分析
驾驶员风格识别
驾驶室
驾驶性
驾驶模拟
驾驶模拟器
驾驶疲劳
驾驶行为
验证
骨架模型
高低不平顺
高分子材料
高压主电路
高压电缆
高压设备箱
高原列车
高原山区
高原铁路
高应力区确定
高度阀
高强结构
高强钢
高性能纤维
高摩合成闸瓦
高效转向履带
高架
高架承轨台道床
高架桥
高架桥梁
高架结构
高海拔
高温
高温空调
高空作业车
高空车
高级修
高置信度
高速
高速列车
高速列车头形
高速列车车体结构
高速动车
高速动车组
高速客车
高速开关阀
高速断路器
高速机车
高速检测车
高速电动车组
高速空调客车
高速车辆
高速轨道车辆
高速转向架
高速道岔
高速铁路
高速铁路客车
高速铁路车辆
高速铁道客车
高速铁道车辆
高铁
高铁车辆
高铁运用
高频开关电磁阀
高频振动
高频脉冲宽度调制控制
鲁棒H∞控制
鲁棒μ控制器
鲁棒性
鲁棒控制
鸟撞
麦弗逊悬架
黄土
黏油罐车
黏着系数
齿轮传动系统
齿轮箱
齿轮箱吊座
0 号块
0#块
0#段
0号块
0号梁段
1/4车辆模型
1860 MPa斜拉索
1:1内共振
1次2阶矩法
2-100m T形刚构
2.5维
20 m T梁
20 m预应力简支空心板桥
27 t轴重
290m刚构桥
2D模型
2次预应力组合梁
2维数值模拟
2跨拱桥
3.8m大直径钻孔桩
30 m预应力T梁
30 t轴重
30%坡度
315
32 m箱梁
35m简支箱梁
3D 编织玻纤织物
3ds max
3G
3塔悬索桥
3层堆存
3步法
3点弯曲疲劳试验
3级工作模式
4-D
40 mT梁
420 km/h
48m简支箱梁
4D仿真模型
4等跨连续梁
50 t贝雷片式
56 m简支箱梁
5线连续箱梁
64 m简支箱梁
8cm混凝土桥面铺装
900 t箱梁
900t轮胎式提梁机
90％标准
?75 mm预应力粗钢筋
ABAQUS
ABAQUS三维数值模拟
Abaqus软件
ACI 209R-92
ADINA
ADINA二次开发
ADINA损伤模拟
AFD法
AFOSM
AHP
AHP(层次分析)
AHP-FIE
Akbas模型
ALARP风险矩阵
ALE
Algor软件
ANSYS
ANSYS二次开发
Ansys分析
ANSYS有限元
ANSYS概率设计系统
ANSYS模拟
ANSYS计算
ANSYS软件
APDL语言
AR(P)模型
ArcGIS Server
ARMA
AS法
AutoCAD
A型墩
A字型桥塔
A形桥墩
B3 模型
B3模式
BCI
Benchmark模型
BFRP
BIM
BIM技术
BIM模型
BOTDA
Bouc-Wen模型
Box-Behnken 抽样
BP-AdaBoost
BP神经网络
Bridgemaster铺装体系
Broms法
BRT
BS
B样条
C60混凝土
C60混凝土箱梁
CAPWAP
CAP轻质垫层
CA交通模型
CA砂浆
CB-NGA
CDMA
CEB-FIP (1990)模型
CEB-FIP MC90
CFD
CFD和有限元
CFD数值模拟
CFD模拟
CFG桩
CFG桩复合地基
CFRP
CFRP 筋材
CFRP-混凝土
CFRP-钢组合拉索
CFRP与钢组合截面
CFRP与钢组合结构
CFRP丝
CFRP主缆
CFRP加固
CFRP拉索
CFRP斜拉索
CFRP板
CFRP板材
CFRP片材
CFRP筋
CFRP索
CFRP索斜拉桥
CFRP索股锚具
CFRP绞线
CFRP缆索
CHBDC
CMSS造桥机
CO2排放
Code First
CPⅢ
CRTS Ⅱ型板式无砟轨道
CRTS Ⅱ无砟轨道
CRTSII 无砟轨道
CRTSII无砟轨道
CRTSⅡ型轨道板
CR全量
CR列式
CS方法
CT扫描
CT法
CWENO重构
C模型
D'Alembert原理
D-InSAR
D-S证据理论
D-最优设计
D24型钢便梁
Daniels效应
Davenpot风速谱
DCY900t运梁车
DEA
Delphi法
DF900D型架桥机
Duhamel积分
DX桩
D区
D区设计
D型便梁
E-M 计算方法
E1地震
E1地震作用
E1概率
E2地震
E2地震作用
E2地震动
E2概率
EBCL层
ECI传感器
EEMD
EKL语言
EMD
EPS板
EPS混凝土
EPS轻质换填
ETR500Y列车
Euler-Bernoulli梁
Euler梁
E型钢支座
E型钢阻尼器
E型钢阻尼支座
FBG
FEMA440
Ferry Borges
FLAC3D
Flow3D
Fortran语言
FPS
FPS支座
FRP
FRP-混凝土
FRP-混凝土-钢管组合方柱
FRP-钢复合管
FRP人行天桥
FRP人行桥
FRP剪力键
FRP布加固
FRP有效拉应变
FRP材料
FRP桥面
FRP桥面板
FRP橡胶支座
FRP筋
FRP约束
FRP约束混凝土
FRP网格
Galerkin方法
GB
GBF高强薄壁管
GCV准则
GENESIS64
GFRP
GFRP-混凝土复合拱
GFRP-混凝土组合桥面板
GFRP-钢组合结构
GFRP桥面板
GFRP筋
GFRP筋材
GFRP筋混凝土桥面板
GFRP筋混凝土梁
Gibson地基
GIS矢量数据
GL2000模型
GM(1,1)模型
GNNS
GPS
GPS RTK
GPS-RTK监控技术
GPS测量
GQJS
GRNN
GZCORS
H RB500钢筋
H+Hat组合型钢板桩
Hankel范数
HB-FRP
HDPE
HDPE缠绕增强管
HEC-RAS
Hermite矩模型
Hertz-damp模型
Hertzdamp模型
Hertz弹性接触
Hertz接触
Hertz接触模型
Hertz接触理论
Hertz模型
Hilbert-Huang变换
Hilbert边际谱
HJC本构
HPFL
HRB500级钢筋
HRB500钢筋
HRBF500钢筋
HSE管理体系
H_∞鲁棒控制
H型断面
H型钢桩
H形断面
H形桥塔
ICP算法
IDA
IDA分析
IDA方法
IES检测仪
ITD
Javascript
JC法
k-ε模型
Kaimal谱
Kalman滤波法
Kelvin位移解
Kelvin模型
Kolmogorov-Smimov检验法
Kriging模型
Kriging法
Laplace变换
LCCA方法
LED灯
Levenberg-Marquardt算法
Lipschitz指数
LNG码头栈桥
Lock-up装置
LQR算法
LRB铅芯直径D
LRFD
LS-DYNA
LS-SVM
Luca折线
LWR模型
Lyapunov指数
M PC复合材料
M/r法
MAC法
Maidas
Maple
Markov过程
Matlab
Matlab 工具箱
Matlab 程序
matlab模拟
MC发展模式
MEP法
MFC
Midas
Midas Civil
Midas Civil有限元软件
Midas FEA
Midas-Civil三维结构软件
Midas/Civil
MIDAS/FEA
Midas2013
MIDAS有限元
Midas板单元
MIDAS计算
MIDAS软件
Miner准则
MIP桩
MMG
Monte Carlo方法
Monte Carlo法
Monte-Carlo
MONTE-CARLO 法
Monte-Carlo方法
Monte-Carlo模拟
Monte-Carlo法
Morison方程
Morison方程法
MPA
MR-TMD阻尼器
MR阻尼器
MTMD
MVVM
m法
NaCl浓度
Newmark-β方法
Newmark-β显式直接积分法
Newmark-β法
NEWMARK法
NGA
NGA West强震库
NOx
NSGA—II
NURBS理论
ObjectARX
OpenGL
OpenSees
OpenSees模拟
ORDER算法
Ottosen强度准则
overlay tester
P-Y曲线
P-y曲线法
P-Δ效应
P-Δ曲线
P-△效应
P.C.箱梁
Panofsky谱
Pareto最优解集
Park-Ang三维损伤模型
PBL
PBL剪力板
PBL剪力连接件
PBL剪力连接件群
PBL剪力连接器
PBL剪力键
PBL剪力键群
PBL键
PB斜拉桥
PC(预应力混凝土桥梁)
PC三塔斜拉桥
PC宽异薄壁箱梁
PC斜拉桥
PC构件
PC桥梁
PC梁桥
PC矮塔斜拉桥
PC空心板
PC等截面箱梁
PC箱梁
PC箱梁桥
PC组合箱梁桥
PC轨道梁
PC连续刚构桥
PDCA循环
PDS技术
PGA
PGL线
PHC桩
PHC管桩桩网
pH值
PIT
PK箱梁
Plaxis 有限元
PLC
PLC系统
POD技术
POS-T模型
Powell算法
PPP-BOTDA
PPWS
PRC弯梁桥
PSI
PSO
PSO算法
pushover
Pushover分析
Pushover方法
Pushover法
PVA纤维
Q-s曲线
Q235钢材
Q345E
Q345qD
Q370qE
Q500qE高性能桥梁钢
QR分解
QR算法
QY型倾角仪
Rayleigh法
Rayleigh法和Southwell合成法
Rayleigh能量法
Rayleigh阻尼
RBF神经网络
RC 结构
RC多T粱
RC拱肋
RC桥
RC桥墩
RC桥墩性能水平
RC桥梁
RC梁
RC梁式桥
RC梁桥
RC结构
RC连续梁桥
RH
Ritz法
RPC
RPC桥墩
RTK-GPS
R主成分分析
S-N
S-N曲线
Saint-Venant区
SAP2000
Sasobit
Scanlan非线性模型
SCGM(1,1)模型
Sesia大桥
shell63单元
Shot～N曲线
SIMPACK
Simulink
Simulink数值仿真
SMA
Smagorinsky亚格子模型
SMO
Snake模型
solid45
South-well频率合成法
Sperling指标
Sr数
SSI效应
SST湍流模型
Steffens—Newton法
Strouhal数
St数
S型曲线
S型钢丝研制
S形曲线桥梁
S～N曲线
T 形刚构
T 形刚构桥
TBL剪力键
TC桩
Tikhonov 正则化方法
Tikhonov正则化
Timoshenko梁
TiNi合金
TJ165架桥机
TLD
TLMD
TMD
TMD 阻尼器
TMD减振
TRC
Tsai-Wu失效准则
Twin-PBL剪力键
Twin-PBL抗剪连接件
T型刚构
T型梁
T型梁桥
T型箱梁
T型钢连接
T形刚构
T形刚构桥
T形开孔肋连接件
T形截面梁
T形曲梁
T形桥墩
T形梁
T形梁桥
T形盖梁
T构桥
T梁
T梁加固
T梁桥
T梁组合结构
T梁翼缘板
T粱
UC-win /Road
UDF
UHPC连续箱梁桥
UL增量
U型桥台
U型梁
U型混凝土套箱
U形梁
U形肋
U形预应力束
U肋
U肋-横隔板连接接头
U肋加劲板
V-T联合荷载
Van der pol振子
Virtual Boundary方法
Visual Basic 6.0
visualc++
VOF方法
VOF模型
VOF法
Von Mises应力
Von-Mises应力
Voronoi图算法
VTK
V型刚构
V型墩
V型索塔
V形刚构
V形刚构—拱组合桥
V形刚构梁拱组合桥
V形墩
V形连续刚构桥
V撑
Warshall算法
WE-SC900运架一体机
Web
WebGIS
Weibull分布
WIM
WIM卡车数据
WIM系统
Winkler地基
Winkler地基模型
Winkler弹性地基梁理论
WJQ40m/150t型架桥机
WKB法
WPF
WQJX平行钢绞线拉索
X 形弹塑性钢挡块
X70管线钢
X射线检测
X形弹塑性阻尼器(XSEPD)
X形提篮拱桥
X形板弹塑性挡块
Y形刚构桥
Y形墩
ZH活载
ZigBee芯片
ZQ2000
β约界法
ε形钢阻尼器
π型断面
π型钢板
Π形板梁断面
π形梁
ρ-λs曲线
φ720螺旋管桩
“321”型装配式公路钢桥
“m”法
“P-△”效应
“T”梁
“∞”形
“先边后中”张拉法
“帆”形塔
“投资-效益”准则
“拉杆
“释能法”
Ⅰ形梁
一体化
一可三易
一机多天线
一次二阶矩方法
一级评价
一维存储
一维数值模拟
一维随机车流类型场
一致性
一致激励
一致输入地震激励
一般冲刷
一阶优化方法
一阶优化法
一阶泰勒级数
一阶纵漂
万州长江公路大桥
三主桁
三主桁三索面斜拉桥
三主梁模型
三分力系数
三台阵振动台
三向力系组合
三塔
三塔两跨悬索桥
三塔单索面斜拉桥
三塔双主跨
三塔四跨
三塔悬索桥
三塔斜拉-自锚式悬索协作体系
三塔斜拉桥
三塔缆索承重桥
三塔自锚式悬索桥
三塔长跨结合梁斜拉桥
三境合一
三岔挤扩桩
三峡库区
三峡水库
三弯矩方程
三拱肋下承式系杆拱桥
三明治结构
三杆六脚透水架体
三杆比拟法
三桁结构
三桁钢桁梁
三桁钢桁梁桥
三桩式
三梁式模型
三次浇筑三次张拉法
三点弯曲试验
三礁港大桥
三级
三线合一、三塔悬索桥
三线曲线矮塔斜拉桥
三维
三维仿真
三维仿真技术
三维光弹实验:有限元
三维分析
三维势流理论
三维变化曲面图
三维可视化
三维地震动
三维地震响应
三维坐标
三维实体建模
三维实体有限元
三维实体有限元模型
三维实体模型
三维实体退化虚拟层合单元
三维建模
三维弹塑性
三维徐变模型
三维拉索
三维数值模拟
三维斜拉索
三维有限元
三维有限元方法
三维有限元模型
三维有限差分法
三维桥基边坡
三维模型
三维气动导纳
三维流场
三维相互作用屈服面
三维稳定性
三维空间
三维空间板壳单元
三维设计
三维调节定位支架
三维路面谱
三维钢筋
三维颤振
三肋拱桥
三肢
三背回填
三腹板
三自由度
三角函数
三角刚架
三角区
三角垫层
三角形
三角形挂篮
三角形空间桁架
三角挂篮
三角桁架
三角桁架型挂篮
三角级数
三角级数法
三角级数解法
三角轻型挂篮
三角高程
三角高程测量
三跨刚构桥
三跨异形连续钢箱梁
三跨连续刚构桥
三跨连续悬索桥
三轴剪切试验
三轴应力
三轴抗压强度
三辊轴整平机
三连拱
三重非线性
三铰拱
三门湾大桥
三阶段力学分析
上下部结构刚度
上埋式过水涵洞
上弦箱梁
上承式
上承式拱桥
上承式桥:拱桥
上承式钢桁梁
上承式钢梁
上承式钢箱拱桥
上拱值
上拱变形
上拱度
上横梁
上水线
上海金山铁路
上行式架桥机
上覆地层
上跨基坑
上跨既有线
上跨桥
上部结构
上部结构施工
上部结构设计
上限值
下卧土层
下塔肢
下套拱法
下山单纯形法
下弦杆断裂
下承式
下承式刚性系杆拱桥
下承式拱型桁架渡槽施工
下承式拱桥
下承式桥
下承式系杆拱桥
下承式钢桁梁
下承式钢管混凝土拱桥
下承式钢箱提篮拱桥
下拉索
下挠
下挠比
下放
下放系统
下横梁
下水
下沉
下沉位移
下沉控制
下沉施工
下沉系数
下穿
下穿公路桥梁
下穿地道
下穿建筑物
下穿式框构桥
下穿既有铁路
下穿明洞
下穿涵洞
下穿铁路
下穿高速铁路桥梁
下穿高铁桥梁
下节点板
下行式移动模架
下部结构
下部结构刚度
不一致性
不中断交通
不中断运营
不利车载
不可见损伤
不同断面形式
不同步施工
不均匀分布
不均匀受力
不均匀沉降
不均匀系数
不密实
不对称
不对称斜拉桥
不对称系数
不对称索面
不对称结构
不对称连续刚构
不平整度桥面
不平衡力矩
不平衡土压
不平衡重
不排水下沉
不确定型AHP
不确定型层次分析
不确定度
不确定性
不确定性分析
不确定性校正
不稳定性
不等跨
不耦合装药爆破
不规则
不足
不透水性能
不锈钢丝
不锈钢吊杆
不锈钢板
不锈钢模板
不锈钢筋
专家调查
专家调查法
专用工程浮箱
专项工艺
专项施工方案
世界文化遗产
东水门大桥
东江大桥
东江特大桥
两主桁
两单自由度系统结构
两层面安全分析
两次等效索长
两步单参数法
两步法
两水准设计方法
两水平设防
两江桥
两油一料
两点限位
两阶段响应面方法
严寒地区
个人数字助理
中、下承式拱桥
中低速磁悬浮
中低速磁浮
中和轴
中国
中国古木结构建筑
中国古桥
中堂大桥
中塔
中塔刚度
中塔弹性纵向约束
中塔选型
中外城市桥梁
中央开口断面
中央开槽
中央开槽箱梁
中央扣
中央槽
中央稳定板
中央索面
中小桥梁
中小跨度桥梁
中小跨径
中小跨径桥梁
中山桥
中强地震
中心复合设计
中性点
中承式
中承式异形钢管混凝土拱桥
中承式拱桥
中承式系杆拱
中横梁
中等跨径斜拉桥
中等跨径连续梁桥
中继间顶进
中美公路
中美抗震规范
中腹板
中跨
中跨合拢
中跨合龙
中跨合龙顶推力
中跨底板预应力束
中铰缝
中间塔
中间索力
中间钢塔
中间锚
中隔墙加台阶(CRD)法施工
中风化灰岩
串列双幅Π型断面
串列双幅断面
串列钝体
串并联模型
串联刚度
临时
临时便桥
临时固接
临时固结
临时固结拆除
临时墩
临时墩架
临时撑杆
临时支墩
临时支座
临时支撑
临时支点
临时横撑
临时结构
临时设施
临时连接件
临时钢栈桥
临时锚固
临界J-积分
临界Re数
临界人数
临界域法
临界寿命曲线
临界屈曲应力
临界断丝数
临界条件
临界疲劳损伤参数
临界荷位
临界荷载
临界荷载失稳系数
临界荷载系数
临界车速
临界间隙
临界风速
临营施工
主元分析
主共振
主副拱刚度比
主副拱协作体系
主动加固
主动对顶横撑
主动托换
主动控制
主动控制力
主动横撑
主动监控模式
主动约束
主动结合
主动调谐质量阻尼器
主动起顶
主动顶升技术
主动预应力
主动预警系统
主动风洞
主塔
主塔刚度
主塔受力
主塔墩
主塔造型
主墩
主墩偏位
主墩承台
主墩横向位移
主墩竖向位移
主干道
主成分分析
主成分分析法
主扇性坐标
主扇性惯性矩
主拉应力
主拱
主拱圈
主拱肋
主曲线
主桁
主桁平面分解法
主桁架
主桁箱形杆件
主桥
主桥施工
主桥设计
主梁
主梁0号块
主梁下挠
主梁刚体转动
主梁刚度
主梁刚度下降
主梁合龙顺序
主梁块件划分
主梁拼装施工顺序
主梁挠跨比
主梁施工
主梁模板
主梁转动
主梁适宜刚度
主梁选型
主梁限位
主梁顶升
主梁顶推
主梁高度
主索鞍
主纵梁
主线桥
主线高架桥
主缆
主缆位移
主缆刚度
主缆平衡方程
主缆弹簧
主缆形状系数
主缆抗滑安全系数
主缆挠度
主缆数值解
主缆无应力长度计算
主缆架设
主缆索夹
主缆线形
主缆线形确定
主缆锚固区
主缆锚固段
主缆锚固结构
主要内容
主要振型指标
主跨底板纵向裂缝
主跨数
主跨标准段
主附结构体系
主鞍座
主频
举措
之江大桥
乌氏第二理论
乌溪江大桥
乌苏大桥
乌龙江大桥
乘坐舒适度
乘子-Newton法
九堡大桥
九江长江大桥
乡村公路
书院文化
乳化沥青
事故总结
事故责任
二值化
二元线性回归
二元随机变量
二分法
二分法程序
二期恒载
二次刚度
二次受力
二次型最优控制
二次对中
二次应力
二次开发
二次张拉
二次抛物线变化
二次抽样
二次清孔
二次衬砌
二次规划
二次规划法
二次跟进
二次项
二次预应力组合梁
二步识别法
二氧化碳成本
二级公路
二级模糊综合评估
二级横张法
二级评价
二维
二维RANS模型
二维圆柱
二维接触模型
二维流场
二维网格
二维识别
二维颤振
二范数
二重结构编码
二阶延迟修正
二阶效应
于都大桥
云图法
云平台
云模型
互功率谱
互功率谱密度矩阵
互相关
互相关函数
互相关系数
互谱识别方法
互通式立交
互通式立交桥
互通式立体交叉
互通立交
互通跨线桥
五主肋三连双曲拱桥
五轴运梁小车
亚临界雷诺数
亚健康桥梁
亚寒带冻土
亚谐波共振
交互作用
交叉
交叉索
交叉索斜拉桥
交界墩
交通分配
交通安全
交通导改
交通工程
交通拥挤识别
交通振动
交通流
交通流量
交通特性
交通疏导
交通疏解
交通组织
交通荷载
交通荷载激励
交通荷载监测
交通荷载调查
交通调查
交通运输
交通运输工程
交通量
交通量调查
交通量预测
京广快速路
京杭运河
京沈客运专线
京沪高速铁路
京沪高速铁路联络线
京沪高铁
京津城际轨道交通工程
京石客运专线
京藏高速
人-桥动力相互作用
人体舒适性
人力资源
人因差错
人字型钢塔
人字形曲线梁桥
人字形桥梁
人字形高桥墩
人字扒杆
人字曲线桥梁
人字门
人工合成
人工地震波
人工岛
人工挖孔桩
人工挖孔灌注桩
人工撞击力时程
人工波
人工海水
人工神经网络
人工边界
人性化设计
人文精神
人桥相互作用
人洞形式
人流量
人的剩余生命价值
人致振动
人行吊桥
人行天桥
人行天桥安全性评估
人行异形拱桥
人行悬索桥
人行景观桥
人行桥
人行桥-人致振动
人行激励
人行激励振动
人行索桁桥
人行索桥
人行荷载
人行道
人行钢桥
介质差异
付氏悬链线理论
代表性体积单元
代表误差
以桥代路
仪器精度
价值工程
任意拉格朗日欧拉格式
仿真
仿真与监测
仿真分析
仿真分析与评估
仿真加载
仿真对比
仿真模型
仿真模拟
仿真计算
企口接缝强度
休工影响
优先级评定方法
优化
优化三阶Runge-Kutta方法
优化分析
优化反演
优化布置
优化改进
优化方案
优化方法
优化模型
优化研究
优化算法
优化计算
优化设计
优化试验
优化选择
优化选择方法
优权评判
优质PHP泥浆
优质泥浆
优选
优选FRP
优选布置
优选法
优选设计方法
会车平台
传力
传力性能
传力机理
传力机理分析
传力能力
传力行为
传力途径
传感器
传感器优化布置
传感器优化布设
传感器保护技术
传感器布设
传感性能
传播规律
传热学
传统主缆防护体系
传统张拉
传统民居
传递函数
传递矩阵
传递矩阵法
伤亡指数
伪加速度
估算公式
伸刚化效应
伸缩力
伸缩缝
伸缩缝刚度
伸缩缝变形
伸缩缝宽度
伸缩缝界面
伸缩缝碰撞响应
伸缩缝跳车
伸缩缝间隙
伸缩装置
伸缩量
伸长量
伸长量偏差率
伸预率比
位移
位移与内力动力系数
位移与应力
位移传感器
位移函数
位移分析
位移判断条件
位移协调
位移同步顶升
位移和应力
位移响应
位移幅值
位移延性
位移延性比
位移延性系数
位移延性能力
位移影响线
位移影响线二阶导数
位移控制
位移方程
位移时程
位移模态
位移法
位移波堆积
位移监测
位移能力
位移角
位移设计
位移设计方法
位移贡献比例
位移输入模式
位移需求
位移验算
位置函数
低功耗
低周反复加载
低周反复加载试验
低周反复荷载
低周反复荷载试验
低周往复荷载
低周期加载
低周疲劳
低回缩锚具
低回缩预应力锚具
低屈服点钢减震榫
低应变
低应变反射波法
低强度混凝土桩
低承台桩-独柱墩
低承台群桩-独柱墩结构
低温
低温性能
低温抗裂性
低温热水辐射
低温焊接
低温环境
低温脆性断裂
低温试验
低温雨雪冰冻灾害
低温韧性
低空跨越
低路堤
低通Butterworth滤波器
低通滤波
低配筋
低频噪声
低高度
低高度梁
体内体外混合配束
体型系数
体外无粘结预应力筋
体外索
体外预应力
体外预应力加固
体外预应力束
体外预应力混凝土梁
体外预应力箱梁
体外预应力索
体杆耦合
体积稳定性
体系
体系与构造
体系协作
体系可靠度
体系平衡
体系承载力
体系转换
体系转换法
体系选择
体育场屋盖
体质综合指数
余弦
佛山平胜大桥
作业流程
作用
作用效应
作用效应组合
使用性能
使用承载能力
使用条件
使用调查
供应链
供水建构筑物
供水管网
供电系统
侧倾
侧倾失稳
侧倾稳定
侧偏特性
侧向刚度
侧向力模式
侧向变形
侧向土压力
侧向填土
侧向振动
侧向水平力
侧向稳定性
侧向载荷
侧向顶进
侧向风
侧向风作用
侧墙
侧壁土压力
侧壁摩阻力
侧摩阻力
侧模
侧移
侧移土体
侧翻
侧阻力
俄罗斯规范
保压
保向力
保护
保护层
保护层厚度
保护性加固
保温
保证准则
保险丝
保险丝式单元
信号与噪声分离
信号分离
信号分解
信号特征
信号跟踪
信号重构
信噪分离
信息化
信息发布
信息更新
信息熵
信息集成
修复
修正
修正B3模型
修正CEB-FIP 1990模型
修正G-M法
修正Timoshenko梁理论
修正偏心压力法
修正剑桥模型
修正压力场理论
修正弹塑性损伤模型
修正抗力
修正方法
修正模型
修正的压力场理论
修正系数
修正边界
倒Y型桥塔
倒塌
倒塌概率
倒塌模式
倒塌模拟
倒梯形截面
倒梯形断面
倒装法
倒角
倾斜岩面
倾斜度
倾斜机理分析
倾斜桥塔
倾斜桩
倾斜荷载
倾覆
倾覆弯矩
倾覆破坏
倾覆稳定
倾覆轴
倾角
倾角仪法
倾角变化
假想荷载法
偏位
偏位监测
偏压
偏压构件
偏压柱
偏差
偏差控制
偏差系数
偏微分方程
偏心压力法
偏心受压
偏心受压构件
偏心受压柱
偏心增大系数
偏心拉拔试验
偏心支承
偏心支撑
偏心率
偏心矩增大系数
偏心碰撞效应
偏心竖向荷载
偏心调整
偏心距增大系数
偏心距影响线
偏心距系数
偏相关
偏移
偏角影响
偏轴应变法
偏载
偏载增大系数
偏载效应
偏载系数
健康
健康指标
健康检测
健康状态
健康状态评估
健康监测
健康监测系统
健康监测软件系统
健康置信区间
健康评价
健康评定
偶然作用
傅里叶变换
允许应力增大系数
允许弯曲应力
允许振幅
允许最大钢板厚度
允许灌浆压力
允许距离
先下围囹后打桩
先孔法
先导比
先导索
先张法
先张法空心板梁桥
先张法预应力
先张法预应力空心板
先拱后梁
先拱后梁施工
先梁后拱
先站后隧
先简支
先简支后桥面连续
先简支后结构连续桥梁
先简支后结构连续梁桥
先简支后连续
先简支后连续T型梁
先简支后连续桥梁
先隧后站
先验结构诊断
光学相干层析(OCT)
光流分析
光电成像
光电挠度
光电挠度系统
光电编码器
光纤传感
光纤光栅
光纤光栅测试技术
光纤光栅监测
光纤力锤
光纤测试
光面爆破
光顺准则
克汰
免棱镜
免维护
兜吊系统
入水深度
入锚
全孔壁摄像
全寿命
全寿命周期
全寿命周期成本
全寿命周期成本分析
全寿命总费用
全寿命成本
全寿命成本分析方法
全寿命成本分析法
全寿命期
全寿命模拟
全寿命耐久性设计
全寿命设计
全寿命设计方法
全寿命设计理论
全寿命评估
全封闭复合拉索
全封闭挂篮
全封闭施工
全护筒
全无缝桥梁
全曲线
全桥
全桥壳单元法
全桥截面
全桥模型试验
全桥气弹模型
全桥气弹模型试验
全桥精细模型
全桥隔震
全模态分析
全液压伸缩臂式铁路起重机
全焊
全焊接整体制造
全焊桁片
全焊结构
全球定位系统
全球导航卫星系统
全生命周期
全站仪
全等效初始缺陷
全约束
全苜蓿叶形互通
全过程分析
全过程接触限位
全过程控制
全过程迭代法
全量形式矩阵分析
全量法
全量迭代法
八车道高速公路
公式推导
公跨铁立交桥
公路
公路T梁
公路大桥
公路工程
公路旧桥加宽
公路曲线梁桥
公路桥
公路桥梁
公路桥梁工程
公路桥梁建设
公路桥梁抗震
公路桥梁施工
公路桥梁疲劳设计车辆荷载
公路桥涵
公路桥面不平度
公路桥面铺装
公路梁桥
公路混凝土梁桥
公路火灾
公路环保
公路管理
公路系统
公路索道桥
公路运输
公路重载交通
公路钢桥
公路钢箱梁
公路铁路两用桥
公路隧道
公路风-车-桥系统
公轨两用
公轨两用悬索桥
公轨两用桥
公轨合一
公铁两用
公铁两用斜拉桥
公铁两用桥
公铁合建
公铁立交桥
六四式军用梁
六塔斜拉桥
六点并联
六索面
六线
六线铁路
六面体单元
兰新铁路第二双线
共同作用
共同工作规律
共振
共振分析
共振响应
共振控制
共振消失
共振车速
共旋坐标法
共面裂纹
共鸣声
关注点
关联分析
关联分析法
关联度
关联性
关键力学问题
关键截面
关键技术
关键技术创新
关键措施
关键效应
关键构造
关键点
关键筛孔通过率
关键节点
关键要素评价法
关键设计参数
关键词:桥梁
关键部位
关键问题
具体体现
具有同时性的双塑性铰
典型大跨连续梁桥
典型桥梁断面
典型病害
典型相关分析
典型结构
典型部位
养护
养护作业
养护方案
养护状况评估
养护策略
养护策略优化
养护管理
养护管理系统
养护维修
内倾塔肢
内倾角
内共振
内养护
内力
内力与位移计算
内力传递
内力位移
内力分布
内力分布优化
内力分析
内力变形
内力增大系数
内力对比
内力影响
内力比
内力测试
内力简化算法
内力计算
内力识别
内力调整
内力重分布
内力重分布规律
内力重分配
内力集中
内压系数
内填外包钢管混凝土
内填部分混凝土箱形截面钢桥墩
内填部分混凝土钢桥墩
内外弧差
内外拱
内外温差
内嵌加固
内平衡系统
内支撑体系
内支撑施工
内水压力
内点法
内禀侧移刚度
内缩量
内置劲性骨架
内置式钢锚箱
内置钢筋
内衬混凝土
内部缺陷
内陆强风区
内骨架
再生混凝土
再生粗骨料取代率
再碱化
冗余度
冗余性
军山大桥
军山长江大桥
军用杆件
军用桁架移模
军用桥梁
农村公路
冬季
冬季施工
冬期施工
冰体边界
冰压力
冰排
冰荷载
冲击
冲击传递装置
冲击作用
冲击力
冲击动力分析
冲击动力学
冲击响应
冲击回波
冲击回波法
冲击因数
冲击弹性波法
冲击振动试验法
冲击效应
冲击系数
冲击系数谱
冲击荷载
冲击钻
冲击钻孔施工
冲击防护
冲击韧性
冲切破坏
冲刷
冲刷公式
冲刷坑形态
冲刷影响区域
冲刷最大深度
冲刷机理
冲刷深度
冲刷稳定历时
冲刷范围
冲刷计算
冲刷试验
冲孔桩施工
冲孔灌注桩
冲淤深度
决策
决策人目标
决策方法
决策树
决策模型
决策理论
冷再生
冷击效应
冷却水管
冷却管
冷却系统
冷压成型
冷弯
冷轧
冷铸锚
冻结法
冻结过程
冻胀
冻融
冻融循环
冻融损伤
冻融破坏机理
冻雨
净宽
准则
准定常理论
准静态压缩
准静载荷试验法
减、隔震技术
减振
减振器
减振孔
减振性能
减振控制
减振措施
减振效果
减振效率
减振方案
减振机理
减振率
减振装置
减振设计
减振降噪
减控幅度
减梁增肋法
减沉复合疏桩基础
减淤措施
减荷
减载
减载块
减载法
减速器
减速度
减隔振
减隔振支座
减隔振桥梁
减隔震
减隔震体系
减隔震技术
减隔震措施
减隔震支座
减隔震方案
减隔震桥梁
减隔震混合装置
减隔震装置
减隔震设计
减震
减震专用支座
减震性能
减震控制
减震措施
减震效果
减震榫
减震率
减震球型支座
减震设计
减震限位
减震隔震
凝聚函数
几何与材料非线性
几何刚度
几何初始缺陷
几何初始缺陷影响
几何合龙控制
几何尺度
几何应力集中系数
几何控制
几何控制法
几何特征参数
几何线形控制
几何线形控制理论
几何长度
几何非线性
几何非线性分析
几何非线性效应
几何非线性稳定
凤凰三桥
凸块锚固区
凸形钢箱拱肋截面
凸集模型
出塔点坐标
出平面稳定
凿毛
刀具磨损
分体箱梁
分叉
分块分析
分块加工
分层
分层加权
分层壳单元
分层架设
分层法
分层线性离散模型
分层遗传算法
分岔屈曲
分布
分布传力式
分布式TMD
分布式传感技术
分布式光纤传感器
分布式应变
分布式弹簧-阻尼单元
分布拟合
分布模型
分布特性
分布规律
分布角法
分幅
分幅式
分幅式钢箱梁
分形
分散减震
分散抗震
分期张拉
分析
分析与计算
分析原因
分析方法
分析模型
分析计算
分枝约界
分次合龙
分步钻入
分步顶推
分段
分段函数
分段吊杆
分段悬链线
分段悬链线理论
分段正弦曲线法
分段浇注
分段算法
分段计算
分段评估方法
分段识别
分段长度
分流板
分片子结构模态柔度综合
分界点位置
分离
分离双箱
分离式
分离式双箱主梁
分离式双边箱截面
分离式承台
分离式挂篮
分离式模型
分离式立交桥
分离式胶囊
分离式钢箱梁
分离法
分离涡模拟
分离迭代法
分离迭代算法
分级标准
分级评价
分级评判
分级评定
分级钻进
分级预警
分节预制墩身
分解
分跨比
分配梁
分配梁承重结构
分阶段受力
分阶段成形
分阶段成形结构
分阶段施工
分项安全系数
分项系数
切割应力释放
切口形状
切向应变
切线
切线位移法
切线刚度矩阵
列车
列车-桥梁-汽车
列车-桥梁系统
列车-轨道-桥梁动力相互作用
列车-轨道-桥梁耦合振动
列车—无砟轨道—桥梁系统
列车—轨道—桥梁耦合振动
列车交会
列车动力响应
列车动载
列车平稳性
列车气动力
列车脱轨
列车荷载
列车荷载图式
列车走行
列车走行安全
列车风
列车风压力系数
刘家峡大桥
刘家峡悬索桥
刘江黄河大桥
刚/柔性组合墙面
刚体碰撞模型
刚域
刚度
刚度与屈服力匹配关系
刚度匹配
刚度参数
刚度变化
刚度平顺性
刚度折减
刚度折减系数
刚度损伤指数
刚度比
刚度渐变
刚度矩阵
刚度矩阵法
刚度系数
刚度衰减估算
刚度评估
刚度转换
刚度退化
刚度退化规律
刚度降低
刚性-弹性索法
刚性中塔
刚性地下连续墙
刚性悬索
刚性拉杆
刚性拼接
刚性接触
刚性支承-弹性索法
刚性支承连续梁法
刚性支撑连续梁法
刚性桩
刚性梁柔性拱
刚性楔形搭板
刚性涵洞
刚性系杆拱桥
刚性索
刚性节点
刚性过渡层
刚性铰
刚性防撞
刚接
刚接梁法
刚构
刚构 -连续组合梁桥
刚构-连续梁
刚构-连续梁桥
刚构-连续组合
刚构-连续组合体系
刚构-连续组合桥
刚构-连续组合桥梁
刚构-连续组合梁桥
刚构-连续组合箱梁
刚构—连续梁
刚构—连续梁桥
刚构—连续梁组合桥
刚构体系
刚构墩
刚构弯桥
刚构桥
刚构桥梁
刚构梁桥
刚构箱梁
刚构箱梁桥
刚构连续梁
刚构连续梁桥
刚架
刚架拱
刚架拱桥
刚架桥
刚柔性
刚柔耦合振动
刚臂
创新
创新发展
创新性
创新理念
初内力优化
初参数法
初始偏心
初始几何缺陷
初始加载龄期
初始动弹性模量
初始平动刚度
初始平衡构形
初始平衡状态
初始应力
初始张力
初始张拉力
初始损伤
初始条件
初始模型
初始索力
初始索力优化
初始缺陷
初始荷载
初始间隙
初应力
初应变
初应变法
初张力
初张拉
初弯曲梁单元
初步设计
初步鉴定
初边值问题
判别准则
判别式
判据
判断
制作
制作与安装
制作工艺
制动
制动力
制动墩隔震
制孔工艺
制定方案
制度
制式锚
制挠工况
制振
制振机理
制梁台座
制梁场
制约因素
制造
制造与安装
制造业
制造参数
制造工艺
制造技术
制造精度
制造线形
制造误差
制造阶段
前、后支点组合挂篮
前导方向性
剥离
剥离模型
剥离正应力
剥离破坏
剥离破坏试验
剩余寿命
剩余寿命评估
剩余强度估计
剩余承载力
剩余静载承载力
剩余预加力
剪切
剪切位移法
剪切修正系数
剪切刚度
剪切刚度模型
剪切力
剪切变形
剪切变形系数
剪切型连梁
剪切型阻尼器
剪切屈曲
剪切屈曲性能
剪切屈服应力
剪切应力
剪切应力分布
剪切应变
剪切应变能
剪切强度
剪切性能
剪切挠度
剪切滑移
剪切疲劳破坏
剪切破坏
剪切试验
剪切静载试验
剪力
剪力分布
剪力墙
剪力槽
剪力流
剪力滞
剪力滞力矩
剪力滞后
剪力滞徐变耦合
剪力滞效应
剪力滞系数
剪力群钉
剪力连接件
剪力连接件群
剪力连接器
剪力连接度
剪力钉
剪力键
剪叉机构 液压缸驱动 ADAMS软件 动力学仿真
剪应力
剪应力分布
剪应力放大系数
剪滞
剪滞力矩
剪滞效应
剪胀效应
剪跨比
割线迭代法
劈裂力
劈裂疲劳
力-位移曲线
力-状态映射模型
力—位移关系恢复力模型
力反馈
力学
力学分析
力学原理
力学参数
力学响应
力学性能
力学性能劣化
力学指标
力学检算
力学模型
力学特征
力学特性
力学行为
力学计算
力平衡传感器
力法
力法原理
力法方程
力法非线性梁柱单元
力流线模型
力矩
力系平衡
功率谱
功率谱密度
功率谱密度函数
功能
功能函数
功能可视化
功能性
功能性支承
功能梯度材料板
功能系统分析技术(FAST)
功能设计
加劲板
加劲梁
加劲梁刚度
加劲箱形截面
加劲肋
加劲肋优选
加劲肋布置
加劲钢板层
加卸载效应
加固
加固体系
加固处理
加固建议
加固技术
加固护岸
加固措施
加固提载
加固改造
加固效果
加固效果评价
加固方案
加固方法
加固施工
加固机理
加固板
加固桥梁
加固次序设计
加固研究
加固系统
加固经济性
加固维修
加固维护
加固设计
加固评价方法
加宽
加宽改造
加工
加强型贝雷梁
加强板
加快施工进度
加权平均刚度
加权法
加权能量方法
加气混凝土
加筋减载
加筋回填
加筋土挡墙
加筋路堤
加筋高性能砂浆
加载
加载历史
加载合龙
加载效率
加载架
加载模式
加载试验
加载路径
加载速率
加载长度
加载顺序
加载频率
加载龄期
加速加载试验
加速度
加速度功率谱密度
加速度反应峰值
加速度反应谱
加速度响应
加速度幅值
加速度时程数据
加速度激活阀值
加速度计
加速度输入模式
加速度阀值
加速腐蚀试验
加速转动
加速锈蚀
劣化
劣化桥面铺装
劣化评定
动位移
动位移时程
动位移耦合系数
动侧摩阻力
动内摩擦角
动凝聚力
动刚度
动剪切模量比
动力
动力仿真
动力作用
动力信号分析
动力冲击系数
动力分析
动力分析法
动力反应
动力反应谱法
动力变化系数
动力可靠度
动力和稳定性能
动力响应
动力响应分析
动力增量分析
动力学
动力学分析
动力学模型
动力屈曲
动力弹塑性
动力弹塑性时程
动力性能
动力性能改善
动力指纹
动力放大系数
动力方程
动力时程
动力时程分析
动力时程法
动力有限元法
动力松弛方法
动力检测
动力模型
动力测试
动力特征
动力特性
动力特性分析
动力特性参数
动力特性及稳定性
动力特性退化
动力相互作用
动力稳定性
动力系数
动力系统
动力缩尺模型
动力耦合计算
动力荷载
动力荷载效率
动力荷载试验
动力行为
动力计算
动力设计
动力识别
动力试验
动力非线性
动压力
动响应
动坐标迭代法
动安全系数
动床模型
动床物理模型
动应力
动应力响应
动应变
动张拉
动态
动态Smagorinsky模型
动态交通荷载
动态位移
动态内力
动态刚度矩阵
动态剪切流变试验
动态力学热分析
动态力学试验
动态可靠度
动态可靠性
动态响应
动态子结构方法
动态弯曲模量
动态影响线
动态承重系统
动态抗弯拉强度
动态挠度
动态摩阻力
动态放大系数
动态断裂
动态时程分析
动态有限元分析
动态检测数据
动态模糊神经网络
动态模糊评价
动态模量
动态测试
动态液压
动态特性
动态监控
动态监测
动态称重
动态称重系统
动态纠偏
动态约束边界条件
动态荷载
动态试验
动态轮压
动态链接
动态阂值区间
动态风荷载
动挠度
动水作用
动水力
动水压力
动网格
动网格技术
动网格算法
动荷载
动荷载系数(DAF)
动车段走行线
动轴力
动载响应
动载试验
动静载试验
助剂
助浮结构
劲性骨架
劲性骨架混凝土
势流体单元
势能
势能极小值原理
勘察
匀质性
匀速转动
包络线方程
包西铁路
化冰盐环境
化学成分
北江大桥
北盘江特大桥
北风
匝道
匝道桥
匝道设计
匝道钢桥
匹配制造
匹配截面
区分界限值
区别
区域地面沉降
区域性河流
区间B样条小波
区间估计
区间关联函数
区间变量
区间数
区间数判断矩阵
区间数对数最小二乘法
区间模型
区间隧道
十字交叉吊杆拱桥
十字形RC短肢剪力墙
千斤顶
千米级
千米级斜拉桥
升力
升力系数
升温作用
升级
半主动变阻尼控制
半主动控制
半刚性框架
半刚性连接
半圆弯拉实验
半圆弯曲试验
半封闭式
半封闭窄箱梁
半封闭连通管
半平行钢丝索
半整体式
半整体式桥台
半整体式桥台桥梁
半整体桥梁
半桥-边坡复合路基结构
半桥-边坡复合道路
半波正弦荷载
半浮桥梁
半解析解
半边桩基础
半隔墙
半飘浮体系
协同作用
协同工作
协同工作性能
协调
协调工作机理
单一系数设计准则
单个调谐质量阻尼器
单主梁
单主缆
单亲遗传算法
单伸缩缝桥梁
单位线
单位脉冲函数
单位荷载法
单侧火灾
单侧非对称失稳模式
单元生死
单元重要性系数
单元长度
单元长度组合
单剪试验
单参数
单向板
单向纵坡
单向观测
单向预应力
单因素分析
单圆柱
单圆柱桥墩
单圆管
单塔斜拉桥
单塔部分斜拉桥
单墩多柱
单墩碰撞模型
单墩顶升
单壁围堰
单层柱面网壳
单悬臂施工
单拱肋
单排桩
单条地震波输入优化
单板受力
单根张拉
单根换索
单根预应力筋
单桩
单桩基础
单桩承载力
单桩竖向抗压极限承载力
单桩轴向承载力
单桩静载试验
单梁法
单点加载
单端张拉
单管冻结
单管提篮内倾
单箱三室
单箱三室箱梁
单箱单室截面
单箱单室箱梁
单箱双室
单箱大断面连续梁桥
单索面
单索面斜拉桥
单线桥
单线梁
单线槽形梁
单线铁路
单维地震工况
单缝桥梁
单自由度
单自由度系统
单自由度质量-弹簧模型
单荷载比
单调性
单轨桥梁
单轨车
单轴拉伸拉
单轴贯入试验
单阶柱法
南二环
南京三桥
南京地铁2号线
南京大胜关长江大桥
南京枢纽
南京长江三桥
南京长江大桥
南京长江第三大桥
南京长江第四大桥
南北汊道
南广铁路
南水北调
南水北调中线工程
南水北调工程
南汉主桥
南盘江特大桥
南非规范
博深高速公路
博物馆
卡尔曼滤波
卡尔曼滤波法
卡氏第2定理
卫星
危岩
危桥
危险性
危险源辨识
危险评估
即时相位
卵石土
卵石层
卵石混凝土
卸索
卸落砂筒
厂制预拱度
历史沿革
历程
压力
压力分布
压力变送器
压力场
压力损失系数
压力注浆
压力环传感器
压力系数
压实工艺
压实度
压差
压应力
压弯构件
压弯荷载
压拔桩力
压敏性
压桩应力
压汞试验和电镜分析
压注混凝土
压浆
压浆修复
压浆剂
压浆密实度
压浆工艺
压浆机理
压浆质量
压电摩擦阻尼器
压电片
压电陶瓷驱动器
压缩冲刷
压缩刚度
压缩性能
压缩模量
压缩薄膜效应
压重
厚度
厚度检测
厚承台
厚板有限元
厚软场地
原位应力
原位拼装
原位模型试验
原位试验
原因
原因分析
原地调头
原型设计
原型试验
原材料
原状黄土
原理
厦漳大桥
厦漳跨海大桥
参数
参数不确定性
参数优化
参数共振
参数分析
参数化
参数化建模法
参数化有限元模型
参数化研究
参数化绘图
参数化编程
参数化输入
参数反演
参数取值
参数影响
参数拟合
参数振动
参数敏感度
参数敏感性
参数敏感性分析
参数更新
参数比较
参数灵敏度
参数研究
参数确定
参数衰减规律
参数计算
参数设计
参数识别
参数选取
参数选择
参数预测
参照坐标修正
参考位形
叉桩
叉桩布置形式
双主梁结构
双主肋
双主跨悬索桥
双侧反对称失稳模式
双单自由度体系结构
双卷筒
双反弯
双反弯曲线
双向倾斜
双向偏心受压
双向压弯
双向地震
双向地震作用
双向地震激励
双向应力
双向弯曲
双向恢复力模型
双向悬臂板
双向拟静力
双向拟静力试验
双向无拉力双线性弹簧
双向板
双向流固耦合
双向滞回特性
双向耦合
双向联想记忆神经网络
双向观测
双向进化
双块式
双垂直线路
双塔三跨平面主缆自锚式悬索桥
双塔三跨悬索桥
双塔单跨悬索桥
双塔双索面矮塔斜拉桥
双塔悬索桥
双塔斜拉桥
双壁套箱式
双壁钢吊箱围堰
双壁钢围堰
双套拱塔
双室箱形截面
双室箱梁
双室箱粱
双层
双层SMA
双层交通
双层公路桥
双层公路钢桁梁桥
双层均布荷载
双层复合衬砌
双层护栏
双层板桁组合结构
双层桥
双层桥梁
双层桥面
双层梁单元法
双层梳形模板
双层模型修正
双层组合
双层结构
双层连续梁桥
双层钢板桩
双层钢桁梁
双层钢箱
双层铺装结构
双层高架桥
双峰分布
双幅典型断面
双幅斜拉桥
双幅桥面
双影响矩阵法
双悬臂
双悬臂施工
双悬臂架设
双承台
双折叠式夹层板
双折线
双抱箍
双拱肋
双排抗滑桩
双排支座
双支座
双曲拱
双曲拱桥
双曲线函数
双曲线型桥塔
双曲面支座
双曲面球型减隔震支座
双曲面球形减隔震支座
双机抬吊
双柔性拱
双柱墩
双柱式桥墩
双柱式梁桥
双柱式盖梁
双柱式轻型桥墩
双柱式高墩
双柱式高墩桥
双桩基础
双片式T梁
双球面
双竖向涡振区
双筋矩形截面
双箱四室脊骨梁桥
双索面斜拉桥
双线性滑动支座单元
双线整孔预制箱梁
双线桥
双线槽形梁
双线连续钢桁梁桥
双线铁路
双线铁路桥
双线隧道
双组合单元法
双缆
双肢薄壁墩
双肢薄壁高墩
双自由度并联模型
双菱形塔
双薄壁墩
双薄壁桥墩
双薄壁高墩
双车交会
双车道公路
双轴压弯
双轴疲劳
双边碰撞
双边箱主梁
双重破坏准则
双重组合
双重组合作用
双重迭代
双重迭代算法
双重非线性
双钢管混凝土
双链式悬索桥
双锚拉板—锚箱
反分析
反力
反力墙
反力监测
反力计算
反力识别
反力调整
反压滑道
反吊三角托架
反向张拉
反向曲线
反复荷载
反对称
反对称扭转振动
反对称竖向振动
反对称索面
反射应力波
反射波
反射裂缝
反应位移法
反应谱
反应谱分析
反应谱分析法
反应谱平台值
反应谱法
反应谱理论
反应谱谱形
反循环
反循环回转成孔
反拉
反拱石
反滤层
反演分析
反白
反预拱
发展
发展储备
发展历程
发展趋势
发现问题
发育程度
取值方法
取消冷却水管
受剪承载力
受力
受力不均匀性
受力与变形
受力体系
受力作用
受力分析
受力分配
受力形式
受力影响
受力性能
受力性能评估
受力机理
受力模型
受力特性
受力特点
受力研究
受力行为
受力计算
受压加劲板
受压区高度
受压圆柱
受压构件
受压试验
受弯性能
受弯承载力
受弯承载能力
受弯构件
受扰期
受拉刚化效应
受拉应力状态
受损
变位钢架
变分
变分原理
变分原理法
变分方法
变分方程
变分法
变刚度
变化规律
变化趋势
变厚钢剪切板阻尼器
变宽
变宽拼宽
变宽箱梁
变宽道岔梁
变幅宽
变幅式桥面吊机
变幅桥面式架桥机
变异
变异性
变异率
变异系数
变形
变形分析
变形协调
变形协调原理
变形场
变形应力
变形性能
变形控制
变形效应
变形机理
变形比例
变形比法
变形法
变形特性
变形监测
变形破坏
变形破坏面
变形缝
变形耦合
变形能力
变形规律
变形计算
变形预测
变彤协调
变态级配碎石:碾压混凝土
变截面
变截面双肢薄壁墩
变截面梁
变截面梁单元
变截面箱形杆件
变截面箱梁
变截面连续梁
变截面连续箱梁
变截面高墩
变换函数
变曲率竖曲线
变更设计
变权
变权分析
变权原理
变权系数
变角度桁架模型
变速行驶
变速运动
变间隔插值
变频器
变高度
变高度连续钢桁梁
变高度预应力箱梁桥
变高梁
叠交
叠加作用
叠加原理
叠加法
叠合中塔
叠合柱桥墩
叠合梁
叠拱
口自锚式悬索桥
古斯塔夫
古石拱桥
可(非)岩溶地基
可信性测度
可拓学
可拓评价方法
可持续发展
可替换耗能元件
可液化土层
可液化场地
可牺牲抗震挡块
可移动式加载系统
可编程液压系统
可行域
可行域法
可行性分析
可行性研究
可行性路径
可观度/可控度
可视化
可调域法
可调节附墙杆
可靠区理论
可靠度
可靠度分析
可靠度指标
可靠度方法,钢丝腐蚀,断丝,二次应力
可靠度理论
可靠度评估
可靠性
可靠性分析
可靠性指标
可靠性水准
可靠性理论
可靠性评估
可靠指标
台后土压力
台后壤土
台背回填
台风
各态历经性
合成地震动场
合成孔径技术
合成波
合成聚焦成像
合成车流
合成速度
合拢方式
合拢方案
合拢段
合拢温度
合拢顺序
合理位置
合理值
合理取值范围
合理布置
合理性分析
合理成桥状态
合理截面
合理截面尺寸
合理拱轴线
合理施工状态
合理构造
合理计算模式
合理跨径
合蚌客运专线
合龙
合龙工艺
合龙技术
合龙措施
合龙方案
合龙施工
合龙束
合龙段
合龙温差
合龙误差
合龙顺序
吉茶高速公路
吊具
吊打
吊拉组合体系桥
吊拉组合桥
吊拉组合桥梁
吊挂系统
吊机
吊杆
吊杆-主梁锚固区
吊杆内力
吊杆力
吊杆布置形式
吊杆张力
吊杆张拉
吊杆张拉力
吊杆形式
吊杆拱桥
吊杆损伤
吊杆更换
吊杆更换技术
吊杆钢丝
吊杆验算
吊桥
吊模
吊点
吊点位置
吊箱围堰
吊篮
吊索
吊索具
吊索刚度
吊索张力
吊索张拉
吊索张拉力
吊索无应力长度
吊索索力
吊索锚固
吊索长度修正
吊装
吊装及整体位移计算
吊装控制
吊装方案
吊装顺序
吊装验算
吊跨比
吊车梁
吊运方案
吊运梁机
同伦分析法
同向回转拉索
同向回转鞍座
同时合龙
同期作用历时
同步
同步下放
同步性
同步性控制
同步拼装
同步控制
同步提升
同步整体顶升施工
同步施工
同步液压滑移技术
同步碎石
同步碎石封层
同步顶升
同步顶推施工
同沙跨湖大桥
名义刚度
名义应力
名义断裂韧性
后压浆
后压浆技术
后处理
后孔法
后张
后张法
后张法和先张法
后张法预应力箱梁
后张锚固区
后张预应力
后张预应力技术
后支点
后支点挂篮
后期变形
后期徐变
后期束
后期裂纹
后注浆
后注浆法
后注浆灌注桩
后浇孔
后浇孔连接
后浇带
后浇横隔墙
后浇段
后继结构
后评价
后评估
后连续
后退
后锚系统
后验的不确定性
后龙溪桥
向前方向性效应
向量烈度指标
启示
吸气系数
吸能效率指标
吹填区
吹填平台
吹填筑岛拌和站
周期
周期变截面梁
周期性高架桥
周期跟振型
咬合桩
哈大客运专线
哈大铁路客运专线
哈密顿原理
哈齐客运专线
响应
响应互相关函数
响应分析
响应灵敏度
响应规律
响应面
响应面方法
响应面法
哑铃型
哑铃型高桩承台基础
哑铃形
哑铃形钢管
唐山地震
唯象
喷射混凝土
喷层支护
喷浆
嘉绍大桥
嘉闵高架路
噪声
噪声分析
噪声去除
噪声治理
噪声测试
噪声源
噪声源识别
噪声过滤
噪音
四分位法
四棱柱式夹层板
四氟滑板氯丁橡胶支座
四点弯曲
四点弯曲疲劳试验
四索面
四线单箱梁
四线圆端形薄壁空心桥墩
四线铁路
四线铁路桥墩
四线高速铁路
回填块石层
回填施工
回填法
回填荷载
回填过程
回复力-状态曲线
回弹值
回归分析
回归方程
回澜立交桥
回转平台
回转支承
回转长度
因地制宜
因素分析
因素分析法
园林
围压
围堰
围堰定位
围堰筑岛
围套加固
围岩条件
固体力学
固化剂
固化反应模型
固化机理
固定圆柱
固定床吸附
固定式提梁桁吊
固定拱
固定支座
固定支座剪力
固接
固支
固有函数法
固有振动
固有频率
固碳能力
固端干扰
固结
固结体系
固结拉索
固结段
固脚围堰
国产环氧沥青
国学
国际平整度指数
国际铁路
图像修正
图像分割
图像分析
图像增强
图像处理
图像处理技术
图像旋转
图像灰度化
图像特征
图像识别
图形变换
图算法
图解法
圆墩
圆孔扩张理论
圆弧形
圆弧形底板
圆弧形横撑
圆弧拱
圆弧曲线梁
圆弧深拱
圆弧过渡
圆形断面形式
圆形桥墩
圆形混凝土柱
圆形空心截面
圆形钢套管
圆心角
圆截面
圆曲梁
圆曲线
圆柱形桥墩
圆柱桥墩
圆柱结构
圆柱绕流
圆端型
圆端型墩
圆端型桥墩
圆端形桥墩
圆端形钢管混凝土
圆管式空心板
圆管桁架
圆钢管再生混凝土短柱
土-基础-结构相互作用
土-基础结构相互作用
土-结构动力相互作用
土-结构相互作用
土-结相互作用
土-钢相互作用
土与结构物作用机理
土体位移场
土体摩擦效应
土体改良
土体蠕变
土力学
土压力
土压力合力
土压力系数
土压平衡盾构
土地资源
土地资源开发与利用
土壤参数
土层地震反应
土工格栅
土工格栅(格室)
土建总体设计
土拱
土拱效应
土木工程
土木建筑结构
土石坝
土结相互作用
土质地基
在役
在役桥梁
在役桥梁安全性
在役梁桥
在役混凝土桥梁
在役混凝土梁桥
在役钢筋混凝土桥梁
在役钢筋混凝土高桥墩
在线振动响应
在线监测
在线监测系统
在线结构分析
在线评估
在线识别
圬工拱桥
圬工桥
地下工程
地下开采
地下沟道
地下结构
地下综合管廊
地下车库
地下车行通道
地下连续墙
地下通道
地下隧道
地垄
地基
地基-结构相互作用
地基不均匀性
地基与基础
地基加固
地基反力
地基基床系数
地基基础
地基基础工程
地基处理
地基承载力
地基柔性
地基柔性效应
地基模型
地基水平运动
地基沉降
地基约束作用
地基非线性
地应力平衡
地形
地形条件
地形模型
地形风洞试验
地温差异
地球重力场
地表冻胀
地表变形
地表建筑物
地表沉降
地表破裂
地裂缝
地质
地质勘察
地质条件
地质适应性
地铁
地铁工程
地铁施工
地铁车站
地铁车站模型
地铁隧道
地锚
地锚与中跨跨径之比
地锚式
地震
地震与重卡车
地震位移
地震作用
地震作用效应
地震分析
地震力
地震力分布
地震力分配
地震动
地震动力响应
地震动区划
地震动参数
地震动峰值加速度
地震动强度
地震动强度指标
地震动水压力
地震动特性
地震动输入
地震动输入方向
地震动输入模式
地震动随机模型
地震危险性
地震反应
地震反应分析
地震响应
地震响应分析
地震响应特性
地震响应耦合
地震地面运动
地震安全性评价
地震工程
地震序列
地震损伤
地震损伤准则
地震损伤分析
地震损伤控制
地震损伤模型
地震损伤评估
地震效应
地震时程分析
地震易损性
地震易损性曲线
地震易损部位
地震模拟振动台台阵试验
地震模拟振动台试验
地震波
地震波介质载体
地震波传播角度
地震波入射角度
地震波合成
地震海啸
地震激励
地震灾变
地震烈度
地震特性
地震现场工作
地震监测
地震监测设施
地震破坏
地震破坏准则
地震破坏分析
地震破坏机理
地震碰撞
地震碰撞响应
地震碰撞效应
地震稳定
地震紧急处置
地震经济风险
地震耗能
地震能量反应
地震能量响应
地震能量方程
地震荷载
地震要素
地震试验
地震输入方向
地震输入角度
地震需求
地震震害
地震震级
地震预警
地震频率
地震风险分析
地面堆载
地面沉降
地面点
地面空间变化
地面运动
地面运动强度参数
场地
场地分类
场地划分
场地地震动效应
场地影响
场地效应
场地条件
场地环境
场地类别
场地类型
场景
均匀化方法
均匀流场
均匀设计响应面法
均布式
均布荷载
均方根加速度
均衡实现
坐标转换
块体
坚硬岩层
坝陵河大桥
坡度
坡桥
坦拱桥
垂向振动理论
垂向流速
垂向紊动强度
垂度
垂度效应
垂直土压力
垂直度
垂线偏差
垂跨比
型式
型钢-混凝土组合加固法
型钢混凝土
型钢混凝土组合梁
型钢钢架
垫石改造
垮塌
垮塌案例
垮塌模拟
埋入式
埋入式柱脚
埋地管道
埋床法预制墩台
埋置式
埋置式基础
埋置式承台
埋置式波纹钢管涵
城市
城市主干道
城市交通
城市人行天桥
城市人行桥
城市地下通道
城市复杂环境
城市既有桥梁
城市桥梁
城市桥梁规范
城市立交
城市立交桥
城市轨道交通
城市轨道交通结构
城市轨道交通高架桥
城市轨道桥梁
城市轻轨
城市道路
城市道路桥梁
城市隧道
城市高架
城市高架桥
城际轨道
城际轨道交通
城际铁路
基于位移
基于位移的抗震加固方法
基于位移的抗震设计方法
基于位移设计
基于全寿命的桥梁设计
基于性能
基于性能地震工程
基于性能抗震设计
基于性能的地震工程学
基于性能的抗震设计
基于性能的桥梁抗震设计
基于性能设计
基于概率
基于概率和性能的抗震设计
基准
基准圆筒定位法
基准有限元模型
基准模型
基准相位
基准索股
基坑
基坑围护
基坑工程,异形基坑
基坑开挖
基坑支护
基坑降水
基岩地震动
基岩谱
基底摇摆隔震
基本流程
基本要求
基本频率
基桩
基桩完整性
基桩断裂损伤
基桩竖向承载力
基桩质量
基桩质量检测
基槽法
基础
基础冻融沉降变形
基础刚度
基础变位
基础墩梁体系
基础差异沉降
基础弹性刚度
基础弹性约束
基础微分方程
基础方案
基础施工
基础模拟方式
基础沉降
基础灌注端承桩
基础约束刚度
基础设施
基础设计
基础隔震结构
基频
基频估算
基频算法
基频近似算法
堆存规则
堆料库
堆载
堆载预压实验
堆载龄期
堵漏
堵漏止水
塑性位移
塑性分析
塑性动力稳定
塑性区域长度
塑性区长度
塑性区面积
塑性变形
塑性应变
塑性损伤
塑性断裂
塑性铰
塑性铰区
塑性铰机制
塑性铰模型
塑性铰长度
塑性防撞装置
塑性阶段
塔
塔-索-桥面结构
塔—梁分离
塔位
塔吊
塔型
塔基
塔墩
塔墩分离
塔壁锚固
塔座
塔机
塔架
塔架系统
塔架荷载
塔柱
塔柱施工
塔柱柔度
塔梁临时固结
塔梁分离
塔梁分离式悬索桥
塔梁同步
塔梁同步施工
塔梁同步施工工艺
塔梁固接结构
塔梁固结
塔梁固结段
塔梁墩固结
塔梁约束
塔梁连接
塔梁高跨比
塔索
塔设计
塔顶偏位
塔高
填充型环氧涂层钢绞线
填充墙
填土重力增大系数
填土高度
填料
填海路基防护
填海造地
墙侧土抗力
墙身弯矩
增压系统
增大截面法
增广基函数
增强机制
增强机理
增强系数
增强频域分解
增补钢筋
增设钢悬挑梁拓宽
增跨
增量分析法
增量动力分析
增量动力分析(IDA)
增量双重迭代法
增量法
增量迭代法
墩
墩-台-桩-土动力有限元模型
墩-水耦合作用
墩中转体
墩动轴拉力
墩台
墩台安装
墩台定位
墩台滑移
墩台身
墩型优化
墩塔梁固结区
墩底边界模拟
墩旁托架
墩柱
墩柱刚度
墩柱损伤
墩梁固结
墩梁固结区域
墩梁式
墩梁相对位移
墩梁约束体系
墩水耦合振动
墩水耦合效应
墩身
墩身分配
墩身坡度
墩身结构
墩顶
墩顶变形
墩顶块
墩顶水平位移
墩顶水平力
墩顶漂移率
墩高
墩高比
壅水
声传递向量
声发射
声发射源
声学参数
声屏障
声振法
声波
声波检测
声波透射
声波透射法
声辐射效率
声辐射特性
声透射法
声音信号
壳单元
处治对策
处治技术
处治措施
处治方案
处治方法
处理
处理技术
处理措施
处理方法
处置方法
复位
复位施工
复位能力
复剪切模量
复合主拱圈
复合加固技术
复合加固法
复合受力
复合地基
复合地层
复合型锚具
复合式移动模架
复合式金属阻尼器
复合式锚具
复合形法
复合材料
复合材料层合板单元
复合桥墩
复合桥面铺装
复合桩基
复合桩钢管
复合梁
复合浇注式沥青混凝土
复合浇筑式
复合砂浆
复合结构
复合结构体系
复合胶粉改性沥青
复合胶粉改性沥青混合料
复合路基
复合钢构桥
复合锚杆桩
复合风速标准
复式钢箱系杆拱梁组合桥
复杂交通状况
复杂价值工程(CVE)
复杂地形
复杂地形桥位
复杂地质
复杂地质条件
复杂应力状态
复杂支架
复杂桥梁
复杂箱梁
复杂群桩基础
复杂荷载
复杂造型桥塔
复模态
复模态分析
复频率
外倾式
外倾角
外剪力键
外包式
外包混凝土施工
外包钢板
外呼吸玻璃幕墙
外围箱体结构
外接式
外接式节点
外推计算
外海
外海桥墩承台
外滩大桥
外置式
外荷载
外观
外观检测
外观调查
外观质量
外部变形监测
外露型
外露段
多T梁
多个调谐质量阻尼器
多主梁
多体动力学
多体系统动力学
多元线性回归
多分辨率图像分类
多分量导纳函数
多功能滑移-减隔震支座
多参数优化设计
多参考点稳定图
多参考点脉冲锤击法
多向地震作用
多向拉压
多哥共和国
多因素
多塔
多塔、分幅、不对称索面斜拉桥
多塔多跨
多塔悬索桥
多塔斜拉桥
多塔连跨悬索桥
多塔连跨悬索结构
多孔扰流板
多室箱梁
多尺度
多尺度分析
多尺度子模型
多尺度方法
多尺度有限元模拟
多尺度模型
多尺度模型修正
多尺度模拟
多尺度法
多层σ坐标
多层动网格
多层建筑
多层钢筋
多岛遗传算法
多峰分布
多工作面
多年冻土
多指标分级加权法
多指标评价
多振型反应谱法
多振型地震反应谱分析
多振型效应
多机成孔
多柱墩
多柱墩盖梁
多桁架
多桅杆
多梁式T梁桥
多梁式桥梁
多梁肋T型结构
多模态推倒分析
多模态推倒分析(MPA)
多模态耦合抖振
多次碰撞
多沙河流
多源损伤
多源数据融合
多灾害
多点反应谱
多点地震动
多点支撑
多点激励
多点激振效应
多点自平衡
多点输入
多点输入反应谱
多片
多球面滑动摩擦隔震支座
多目标优化
多目标函数
多目标等效
多目标等效静力风荷载
多种动荷载
多种因素
多箱式
多约束
多级变幅疲劳荷载
多级模糊模式识别
多级模糊综合评判
多级防冲结构
多维地震工况
多维地震输入
多维激励
多维输入
多联先简支后连续混凝土T梁桥
多联桥跨结构
多联连续梁桥
多肋T形梁
多肋飞燕式钢桁架拱式结构
多自由度
多自由度结构
多荷载桥梁
多跨
多跨斜拉-自锚式悬索组合体系桥
多跨现浇梁
多跨矮塔斜拉桥
多跨石拱桥
多跨简支梁桥
多跨过桥水管
多跨连拱
多跨连续刚构桥
多跨连续梁
多跨连续梁桥
多跨钢管混凝土拱桥
多跨长联桥梁
多跨长联连续梁
多跨高墩连续刚构
多车辆
多车道车辆荷载
多迹线加载
多遇地震
多道设防，分级耗能
多道防线抗震球型钢支座
多重循环荷载
多重调谐质量阻尼器(MTMD)
多门洞
多阶段抗震装置
多阶段抗震设计理论
多项式拟合
多龄期斜拉索
大临工程
大件运输
大位移
大位移小应变
大位移效应
大位移桥梁伸缩缝
大位移顶推
大体积承台
大体积混凝土
大体积混凝土桥台
大体积混凝土结构
大保护层
大倾角斜塔柱
大刚度法
大变形
大吨位
大吨位徐变仪
大吨位锚具
大圆筒
大坡度
大坪子桥址方案
大型交叉
大型储罐
大型地下硐室
大型基础
大型振动台试验
大型振动离心机
大型施工机械
大型架桥机
大型桥梁
大型桥梁结构
大型沉井
大型液体粘滞阻尼器
大型深水沉井
大型渡槽
大型钢吊箱
大型锚碇基坑
大型隧道
大型预制箱梁节段
大型高墩通航渡槽
大堤防护
大孔隙沥青混合料
大宽度
大尺寸混凝土箱梁
大尺寸钢管混凝土柱
大尺度模型
大幅振动
大幅风雨振
大应变单元
大悬臂
大悬臂吊装
大悬臂展翅箱梁
大悬臂箱粱
大成桥
大截面鱼腹式箱梁
大挠度
大振幅自激力
大数据
大斜交角度
大样
大桥
大桥拆除
大榭第二大桥
大比例模型
大比例节段模型
大比例节段模型试验
大气温度
大流速
大涡模拟
大涡模拟(LES)
大瑞铁路
大直径
大直径变截面桩
大直径摩擦桩
大直径支盘桩
大直径桩
大直径转孔灌注桩
大直径钢圆筒
大直径钢波纹管涵洞
大直径钢管支架
大直径钢管桩
大直径钻孔桩
大直径钻孔灌注桩
大矢跨比
大秦线
大纵坡度
大胜关长江大桥
大节段吊装
大行程
大行程板式铅剪切阻尼器
大角度转弯
大质量法
大跨
大跨PC梁桥
大跨PC连续刚构桥
大跨V形刚构桥
大跨公轨两用钢桁架拱桥
大跨劲性骨架拱桥
大跨宽箱PC连续刚构桥
大跨度
大跨度V形刚构拱组合桥
大跨度公铁两用斜拉桥
大跨度多塔斜拉桥
大跨度多线铁路桥梁
大跨度悬索桥
大跨度拱形结构
大跨度拱桥
大跨度斜拉桥
大跨度桥
大跨度桥梁
大跨度现浇梁
大跨度矮塔斜拉桥
大跨度移动模架
大跨度简支梁
大跨度系杆拱桥
大跨度索结构
大跨度轨道交通桥梁
大跨度输煤栈桥
大跨度连续刚构桥
大跨度连续梁
大跨度连续梁桥
大跨度连续钢桁梁
大跨度钢拱桥
大跨度钢桁拱
大跨度钢桁斜拉桥
大跨度钢箱梁桥
大跨度铁路斜拉桥
大跨度铁路桥梁
大跨度隧道
大跨度预应力
大跨度预应力混凝土连续梁桥
大跨径
大跨径PC连续箱梁桥
大跨径悬索桥
大跨径拱桥
大跨径斜拉桥
大跨径桥梁
大跨径桥梁结构
大跨径梁桥
大跨径混凝土梁桥
大跨径现浇箱梁
大跨径缆索承重桥
大跨径自锚式悬索桥
大跨径连续刚构桥
大跨径连续梁
大跨径连续梁桥
大跨径连续箱梁桥
大跨径钢桁梁悬索桥
大跨径钢桥
大跨径钢桥桥道系
大跨径预应力
大跨径预应力混凝土连续刚构
大跨悬索桥
大跨拱桥
大跨斜拉桥
大跨斜拉结构
大跨曲线连续刚构桥
大跨桥梁
大跨梁桥
大跨混凝土刚构桥
大跨简支梁桥
大跨越输电塔
大跨越输电工程
大跨连续刚构
大跨连续刚构桥
大跨连续梁
大跨连续梁桥
大跨钢桥
大跨预应力混凝土桥梁
大跨高墩桥梁监控
大轴重
大边跨
大铰缝
大面积堆载
大高度同步顶升
天兴洲大桥
天文水准
天桥
天梭形索塔
天然含水率
天然橡胶支座
天然浮石粉
天窗点
太子河中华大桥
太阳能-土壤源热能复合道路融雪系统
太阳能-土壤源热能耦合桥面融雪系统
太阳辐射
失效
失效分析
失效形式
失效成本
失效指标
失效控制
失效机理
失效树
失效概率
失效模型
失效模式
失效系数
失效评定曲线
失效路径
失真区
失真数据
失稳
失稳判据
失稳形式
失稳形态
失稳模式
失稳模态
失稳特征值
失稳特点
失稳系数
头型冲击器
夹层桥面板
夹层结构
夹层防撞装置
夹芯复合材料
夹角
奇异值分解
奇异性
奇异摄动解法
奇异点
奇异熵
套箍
套箍作用系数
套箍加固技术
套箍加固法
套箍系数
套管重量
套轨
姿态调整
威布尔分布
子区域
子模型
子模型法
子结构
子结构分析
子结构方法
子结构法
孔壁应力
孔壁稳定
孔壁粗糙度
孔外爆破
孔结构
孔群检测
孔跨布置
孔跨方案
孔道灌浆
孔隙形状
孔隙水压力
字符计算
存梁
季节性应力
季节温差
季节温度
宁波象山港公路大桥
宁海新桥
安全
安全:专项方案
安全余量
安全分析
安全厚度
安全因子集
安全寿命法
安全帽
安全性
安全性富余度
安全性测试
安全性能评估
安全性评价
安全性评估
安全技术
安全控制
安全控制措施
安全措施
安全施工
安全注意事项
安全状态
安全状态评估
安全现状
安全生产
安全监控管理系统
安全监测
安全管理
安全系数
安全舒适性
安全航速
安全评价
安全评估
安全评定
安全距离
安全运营
安全阈值
安全防护
安全预警
安全预警值
安全风险评估
安庆长江铁路大桥
安装
安装工艺
安装控制
安装架设
安装温度
安装精度
安装索力
安装线形
安阳段
完全二次型组合
完全反射边界
完全弹性支承
完全数值方法
完全非金属梁
完备性
宏观测量
定位
定位与着床
定位埋件
定位支架
定位检测
定位系统
定位计算模块
定常吸气
定床
定床模型试验
定性论证
定时合龙技术
定期检查
定期检测
定量分析
定量化
定量评估
定长扣索法
定额
定额取值
宜万铁路
宜昌长江大桥
宝塔形
实体 -梁单元法
实体-空间梁单元
实体单元
实体有限元
实体有限元法
实体模型
实体破坏性试验
实体退化单元
实例
实例分析
实例解析
实例验证
实施效果
实施方案
实时
实时在线监测
实时检测算法
实时监控
实时监控系统
实时监测
实时系统
实时耦联动力子结构试验
实桥加载
实桥实验
实桥换算值
实桥测试
实桥监测
实桥破坏性试验
实桥破坏试验
实桥试验
实测
实测、统计、分析计算
实测与分析
实测应力时程
实测应力谱
实测应变
实测强风
实测数值
实测数据处理
实测索力
实测统计
实测谱
实测车流
实测静态广义影响线
实测风谱
实用公式
实用表达式
实用解析解
实用计算
实用计算公式
实用计算方法
实用设计方法
实腹式拱桥
实腹式石拱桥
实船试验
实质性维护
实践
实际地震波
实际无应力线形
实际车辆荷载
实际近场记录
实验
实验室模型
实验方法
实验检测
实验研究
客货共线
客货共线铁路
客运专线
客运专线桥梁
客运专线铁路
室内模型试验
室内试验
容许动力系数
容许台阶高度
容许失效概率
容许应力
容许应力提高系数
容许应力法
容许应力法配筋
容许车速
容许限值
容重
宽主梁
宽厚比
宽幅
宽幅挂篮
宽幅桥面
宽幅空心板
宽幅箱梁
宽幅脊骨梁
宽度
宽桁
宽桥
宽桥面
宽水槽模型
宽箱梁
宽箱梁桥
宽缺口梁法
宽翼缘
宽跨比
密实
密实度
密实骨架堆积法
密封结构
密封胶
密布横梁体系
密度法
密水透气
密频结构
富氧燃烧
富水砂层
富水蚀变岩
富沥青环氧沥青混凝土
寒冷地区
寒区
寒区桥梁
寒流
寒潮
寨河桥
对分法
对拉
对接
对接焊缝
对撑结构
对数正态分布
对数衰减率
对比
对比分析
对比研究
对比试验
对比试验研究
对流效应
对称
对称子结构
对称断丝
对策
对策建议
对策研究
对角斜跨拱桥
导偏轮
导入力
导向定位方法
导梁
导波
导流板
导热系数
导电性
导管安装角度
导管法
导线
寿命
寿命函数
寿命分析
寿命周期
寿命周期成本
寿命周期成本分析方法
寿命周期成本分析法
寿命期
寿命评估
寿命预测
封孔塞
封底
封底排水
封底混凝土
封盘混凝土
封闭式防护罩
封闭技术
封闭挂篮
封闭解
将军渡黄河特大桥
小偏心受压构件
小半径
小半径匝道桥
小半径宽体连续弯梁桥
小半径平曲线段
小半径曲线
小半径曲线弯梁
小半径曲线桥
小半径曲线梁桥
小半径曲线箱梁
小半径曲线连续刚构桥
小半径预应力束
小截面方桩
小曲线
小样本数据
小桥涵
小梁试验
小河沟特大桥
小波
小波分析
小波功率谱
小波包
小波包分析
小波包系数节点能量谱
小波去噪
小波变换
小波基
小波多尺度分析
小波多尺度去噪
小波消噪
小波神经网络
小波网络
小波脊
小波阈值
小流域
小箱梁
小箱梁桥
小纵梁
小角度交叉
小跨度
小跨径
小阻力扣件
小鱼洞大桥
少支架设计
少筋混凝土
尖点突变理论
尺寸
尺寸效应
尺度
尼尔森体系
尼尔森拱
尾流
尾流旋涡
尾流结构
局部偏差系数
局部冲刷
局部冲刷机理
局部凹陷分析
局部分析
局部动态层变法
局部受力
局部受力分析
局部场地
局部场地效应
局部均值分解
局部屈曲
局部屈曲模态
局部平衡
局部应力
局部应力分析
局部应力改善
局部强度
局部承压
局部承压应力
局部折减系数
局部振动
局部损伤
局部无压浆
局部构造
局部构造效应
局部模型
局部疲劳
局部稳定
局部稳定性
局部精细模型
局部荷载
局部软基
局部风压
层剥
层合板
层数
层析分析
层析分析法
层次关系
层次分析
层次分析方法
层次分析法
层间
层间位移
层间位移角
层间剪切
层间剪切试验
层间剪应力
层间滑动摩擦接触
层间粘结系数
层间隔震
层风力系数
屈强比
屈曲
屈曲临界应力
屈曲临界荷载系数
屈曲分析
屈曲模态
屈曲稳定
屈曲稳定性
屈曲系数
屈曲约束支撑
屈曲约束支撑刚度
屈曲约束耗能支撑
屈服后刚度
屈服强度
屈服承载力
屈服比
屈服线理论
屈服荷载
屈重比
屏蔽信号
展向相关性
展望
展望桥人行舒适度
展翅箱梁
履带吊
履带式荷载
履带运输车
山体稳定
山区
山区公路
山区公路桥梁
山区农村
山区峡谷
山区峡谷桥梁
山区桥梁
山区铁路
山区高墩桥梁
山区高速
山区高速公路
山地城市
岛状多年冻土
岩体特性
岩体稳定性
岩土工程
岩土工程勘察
岩基
岩层
岩溶
岩溶区
岩溶区域评价
岩溶发育
岩溶发育特征
岩溶地区
岩溶地层
岩溶强发育区
岩溶桩基
岩溶注浆
岩溶洼地
岩溶病害
岩溶隧道
岩爆
岩石力学
岩质边坡
岩锚
岸坡
峰值加速度
峰值因子
峰值声压
峰值应力
峰值拾取法
峰值拾取法(PP)
峰值温度
峰值滑移
崇启大桥
崩裂
崩裂破坏
嵌入式实体组合单元
嵌入式模型法
嵌入式系统
嵌入式连接件
嵌固效应
嵌岩
嵌岩100m深
嵌岩桩
嵌岩深度
嵌岩灌注桩
嵌岩钢护筒
嵩阳书院
巡检平台
工业相机
工作主索
工作原理
工作宽度
工作平台
工作性能
工作机理
工具式桩基钻孔平台
工具式移动外架
工具式组合木梁
工况
工后沉降
工字形梁
工字木梁
工序优化
工序质量
工效
工程
工程保险
工程加固实例
工程参数
工程地质
工程地质单元层
工程场地
工程实例
工程应用
工程建设
工程技术
工程抗震
工程控制
工程措施
工程桩
工程测量
工程特性
工程管理
工程索力
工程结构
工程设计
工程质量
工程进度
工程造价
工程需求参数
工程项目
工艺
工艺与质量控制
工艺优化
工艺创新
工艺措施
工艺方案
工艺标准
工艺设计
工艺试验
工艺质量控制
差值法
差分曲率
差分法
差分解法
差动式传感器
差压传感器
差异分析
差异变形
差异性
差异沉降
巴东地震
市场前景
市政工程
市政桥梁工程
市政综合管线
市政道路上跨高铁
市政高架桥
市郊铁路
布图算法
布尔运算
布局分析
布拉格光纤光栅传感器
布敦岩沥青
布料机
布料杆
布束方案
布置
布置形式
布置方案
布西奈斯克
布设原则
布谷鸟搜索算法
布里渊散射
帆形塔
帕克西桥
带伞撑空冷支架结构体系
带副拱
带参数GPS水准拟合
带式舟桥
带肋钢板-混凝土复合梁
带肋钢板-混凝土复合结构
带肋钢板-混凝土组合构件
带肋钢板-混凝土组合结构
带锈底漆
带预应力筋的平面梁
帷幕
帷幕灌浆
常见问题
常规三轴试验
常规桥梁
常规设计
常遇地震
帽梁
幅值相关阻尼
干密度
干式
干式变压器
干接缝
干施工条件
干涉检测
干涉雷达
干湿交替循环
干空气除湿
干索驰振
干线铁路便桥
干缩
平卧法预制
平原区
平台
平台值
平均可打桩深度
平均曲率模态因子
平均积分分量
平均风速剖面
平弯束
平截面
平截面假定
平整度
平方预报误差
平曲线
平曲线半径
平板
平板断面
平波法
平移
平稳性
平行双幅断面
平行双幅桥
平行拉索
平行钢丝
平行钢丝拉索
平行钢丝斜拉索
平行钢丝斜拉索,分离式基础
平行钢丝索
平行钢绞线
平行钢绞线斜拉索
平行钢绞线索
平衡微分方程组
平衡方程
平衡点
平衡阀
平距放样
平转
平转施工
平转法
平转连续梁桥
平钢腹板
平面分析
平面壳元
平面应力状态
平面应变模型
平面弹性支承模型
平面抛物线索元
平面杆单元
平面梁元
平面线形
平面缆索结构
平顺性
平齐端板连接
年温差
年温差作用
并列桥梁
并行计算
并行遗传算法
广义Maxwell模型
广义位移
广义内力
广义刚度法
广义力矩
广义屈服准则
广义屈服剪力
广深港客运专线
序列
序贯抽样
库仑双线性摩擦模型
库仑阻尼力
库区深水裸岩
应力
应力-时间历程
应力与线性监测
应力位移
应力依赖性
应力分布
应力分布规律
应力分析
应力动力系数
应力包络图
应力历程
应力变化
应力可行域
应力响应
应力回波
应力场
应力场强法
应力增量
应力对比值
应力差
应力幅
应力幅变化
应力幅度
应力幅折减系数
应力应变曲线
应力应变模型
应力应变特性
应力强度因子
应力影响
应力扩散
应力扩散角
应力扰动区
应力损失
应力损失与补偿
应力控制
应力时程
应力松弛
应力极值
应力比
应力比法
应力比较
应力波
应力波反射
应力波效应
应力测试
应力测量
应力特征
应力状况
应力状态
应力监控
应力监测
应力相关阻尼
应力观测
应力调控
应力谱
应力趋势
应力释放
应力释放初始应变
应力重分布
应力限值
应力集中
应力集中效应
应力集中系数
应力预测
应变
应变传感器
应变传递
应变分布
应变分析法
应变响应
应变差
应变指标
应变时程数据
应变模态
应变模态法
应变测试
应变演化
应变特性
应变率
应变监控
应变监测
应变等效原理
应变能
应变能比例阻尼
应变能量分布
应变规律
应变辨识
应变集中现场测试
应变频响函数
应对措施
应对策略
应急加固
应急处理
应急抢通
应急评估
应急轨道梁
应急预警
应用
应用价值
应用分析
应用展望
应用比较
应用现状
应用研究
应用策略
底口漏浆
底座式
底板
底板与腹板开裂
底板崩裂
底板开裂
底板曲线次数
底板横向无粘结预应力钢束
底板纵向裂缝
底框砌体结构
庙嘴长江大桥
府城立交
废弃粘土砖
延性
延性加固
延性参数
延性变形能力
延性性能
延性抗震
延性抗震设计
延性断裂韧度
延性构件
延性能力
延性设计
延火时间
建场技术
建桥工程
建桥结合
建模
建模方法
建筑信息模型
建筑工程
建筑构件
建筑模网混凝土剪力墙
建筑混凝土
建筑结构
建网方案
建议
建议车速
建设
建设定额
建设期成本
建设条件
建设管理
建造
开仓换刀
开关控制
开口拱塔
开口断面
开口断面主梁
开口肋
开口薄壁钢梁
开合效应
开启桥
开孔形式
开孔折板
开孔板
开孔板连接件
开孔桥墩
开孔波折板剪力件
开孔钢板连接件
开挖
开挖方案
开挖模拟
开槽
开槽法
开洞
开洞插管
开裂
开裂刚度
开裂原因
开裂实例
开裂弯矩
开裂影响
开裂截面惯性矩
开裂时间模型
开裂机理
开裂荷载
开裂风险
异同点
异型
异型拱桥
异型板
异型管
异型钢管拱
异型钢管混凝土拱桥
异型钢箱混凝土索塔
异型铰接板梁
异常检验
异常诊断
异形孔桥墩
异形拱桥
异形斜拉桥
异形斜杆拱桥
异形柱框架结构
异形柱节点
异形独塔
异形箱梁
异形钢管混凝土拱桥
异步施工
异种金属
弃土
引入系统
引出量
引桥
张力
张力均匀性
张力增量
张力指标
张力控制值
张力测试仪
张力测量
张固法
张弦梁
张拉
张拉力
张拉力控制
张拉力测试
张拉应力
张拉控制
张拉支架
张拉效果
张拉方法
张拉施工
张拉次序
张拉空间
张拉自动控制系统
张拉设备
张拉试验
张拉质量
张拉顺序
张拉龄期
弥散型裂缝
弦剥离
弦割法
弦振动
弦振动理论
弦杆
弦梁刚度比
弧形切口
弧形缺口
弧形缺口形状
弧长微分
弯-扭耦合
弯、剪复合曲线
弯剪分析模型
弯剪扭强度关系
弯剪数值分析
弯剪破坏
弯剪耦合
弯扭刚度比
弯扭屈曲
弯扭效应
弯扭矩
弯扭耦合
弯扭耦合效应
弯扭自由度耦合
弯折
弯折性能
弯折角
弯拉应变
弯拱桥
弯斜拉桥
弯曲-扭转相互作用
弯曲刚度
弯曲剪应力
弯曲变形
弯曲孔道
弯曲孔道摩阻损失
弯曲应力
弯曲应力梯度
弯曲应变能
弯曲抗力概率模型
弯曲正应力
弯曲正应变
弯曲疲劳
弯曲程度
弯曲航段
弯曲行为
弯桥
弯桥直做
弯桥转体,合龙段
弯梁
弯梁桥
弯梁纠偏
弯矩
弯矩 -曲率分析
弯矩-曲率
弯矩-曲率关系
弯矩影响线
弯矩时程
弯矩曲率
弯矩曲率分析
弯矩横向分布系数
弯箱梁
弯箱梁桥
弯起器
弯起束
弯连续刚构
弹塑体
弹塑性
弹塑性位移
弹塑性位移能力
弹塑性位移谱
弹塑性分析
弹塑性动力时程分析
弹塑性反应
弹塑性反应谱
弹塑性反应谱分析
弹塑性变形
弹塑性响应
弹塑性地震反应
弹塑性地震响应
弹塑性损伤帽盖模型
弹塑性时程分析
弹塑性有限元
弹塑性纤维单元
弹塑性钢阻尼器
弹塑性需求谱
弹性
弹性中心法
弹性位移反应谱
弹性体
弹性减振垫层
弹性分析
弹性刚度
弹性剪切屈曲强度
弹性半空间
弹性反应谱
弹性变形
弹性地基梁
弹性地基梁"m"法
弹性失稳
弹性失稳破坏
弹性屈曲
弹性嵌同
弹性工作状态
弹性常数
弹性应力配筋法
弹性弯扭屈曲
弹性形变
弹性徐变理论
弹性支承
弹性支承墩
弹性支承框架法
弹性支承法
弹性支承连续梁
弹性支承连续梁比拟法
弹性支撑
弹性支撑连续梁法
弹性收缩
弹性时程
弹性极限荷载
弹性核法
弹性桩土相互作用
弹性模型
弹性模量
弹性模量缩减法
弹性理论
弹性积分常数
弹性稳定
弹性稳定系数
弹性索
弹性约束
弹性薄板理论
弹性转动约束
弹性边界
弹性连接
弹性连接装置
弹性阶段
弹簧
弹簧刚度
弹簧质量模型
弹簧近似法
强余震
强健性
强制性条文
强地震
强地震动
强度
强度优化
强度准则
强度分析
强度利用系数
强度包线
强度匹配
强度发展
强度因子
强度增长
强度增长特性
强度增长规律
强度度量指标
强度折减
强度折减法
强度折减系数谱
强度机理
强度模型
强度理论
强度等级
强度衰减
强度退化
强度验算
强涌潮
强涌潮区
强渗漏
强潮涌
强肋位
强迫振动
强迫振动方程
强迫振动法
强迫振动节段模型试验
强迫振动装置
强震
强震作用
强震动记录
强震区
强震地面运动
强震序列
当块
当量温差
当量轮次
形位尺寸
形函数时变性,车桥竖向耦合振动
形制
形变分析
形差
形式
形心
形心轴附加弯矩
形态特征指标
形成原因
形状
形状记忆合金
形状记忆合金橡胶(SMAPR)
形貌和变形测量
彩针形独塔斜拉桥
影响
影响函数
影响分析
影响参数
影响因素
影响矩阵
影响矩阵MIDAS/CIVIL
影响矩阵法
影响系数
影响系数法
影响线
影响线分析
影响线加载
影响线矩阵
影响线零点
影响评估
影响长度
影响面
影响面和包络面
彻底关大桥
往复加载试验
往复荷载
径向不耦合系数
径向位移
径向力
径向基函数
径向基函数(RBF)法
径向基函数神经网络
径向基神经网络
径向基网络
径向应力
径流形成法
徐(温)变形
徐变
徐变上拱
徐变加载装置
徐变参数
徐变变形
徐变应力
徐变挠度系数
徐变效应
徐变曲率
徐变模型
徐变特性
徐变监测
徐变系数
徐变系数曲线拟合
徐变试验
徐变预测模型
循环加载
循环压浆
循环水泵房
循环荷载
循环试验
微元法
微分方程
微分方程组
微分求积
微分求积法
微分法
微动疲劳
微地震监测
微型轿车
微差爆破
微弯段
微桁架元
微膨胀混凝土
微裂缝
微观
微观测量
微观结构
德大铁路
心得体会
心率
心理测量
快速
快速修复
快速修补
快速加固
快速拼装
快速施工
快速更换
快速检测
快速评估
快速评定
快速贝叶斯FFT
快速鉴定
快速非线性分析
快速预制
怒江大桥
怒江特大桥
性能
性能化方法
性能增强再生混凝土
性能抗震设计
性能指标
性能水准
性能水平
性能演变
性能点
性能特点
性能目标
性能研究
性能等级
性能系数
性能设计
性能评估
性能试验
性能退化
性能退化模型
总体变形
总体方案
总体构思
总体框架
总体测设思路
总体稳定
总体设计
总干渠
总结
恒幅载荷
恒活载
恒载
恒载内力
恒载影响
恒载索力
恒载集度
恒载零弯矩
恒载零弯矩理论
恢复
恢复力
恢复力模型
恢复力特性
悬吊支架
悬拼技术
悬拼提梁机
悬拼法
悬挂拼装
悬挑与土体
悬挑人行道板箱梁
悬挑托架
悬浇
悬浇施工
悬浇箱梁
悬灌
悬灌梁
悬索
悬索斜拉组合结构
悬索桥
悬索桥上部结构
悬索桥主缆
悬索桥空缆状态
悬索桥钢箱梁
悬索线理论
悬索钢桥
悬臂
悬臂吊装
悬臂导向架
悬臂弯曲
悬臂拼装
悬臂拼装架桥
悬臂拼装法
悬臂效应
悬臂施工
悬臂施工法
悬臂板
悬臂板箱梁
悬臂架设
悬臂架设施工
悬臂梁
悬臂梁施工
悬臂梁桥
悬臂模板
悬臂水平分离板
悬臂法施工
悬臂浇注
悬臂浇筑
悬臂浇筑施工
悬臂浇筑法
悬臂浇筑预应力砼箱梁施工
悬臂灌注法
悬臂灌筑架桥
悬臂结构
悬臂翼缘板
悬臂连
悬臂长度
悬臂顶帽
悬臂顶推
悬链线
悬链线拱
悬链线方程
悬链线索元
惩罚函数
惯性力
惯性矩
成分
成品索
成品索长
成因
成因与对策
成因分析
成因及防治措施
成因机理
成孔
成孔切槽
成孔工艺
成孔技术
成孔检测
成层地基
成效
成本
成本分析
成本控制
成本构成和参数分析
成本模型
成桥恒载索力
成桥状态
成桥索力
成桥索力优化
成桥线形
成桥线形误差分析
成桥线形误差预测
成桥试验
成桥阶段
成桥预拱度
成武高速
成活率
截口分布
截尾分布
截桩机
截面内力积分
截面几何特性
截面分析
截面刚度
截面刚度比
截面剖分
截面变异系数
截面应力
截面弯矩-跨中挠度分析模型
截面形式
截面形状
截面极限承载力
截面温度场
截面积
截面积损失
截面纤维模型
截面转换
截面转换公式
截面转换法
截面配筋
截齿取心筒钻
扁平箱梁
扁平钢箱梁
扁担梁
扇形式扣挂
扇性坐标
打设
托换
托换处理
托换改造
托换结构
托架
托架受力检算
托架施工
托架法
托架法施工
托架现浇
托架结构
托架预压
托盘
扣件纵向阻力
扣件间距
扣挂法
扣挂系统
扣索
扣索索力
扣锚索系统
扩大基础
扩大基础施工
扩展卡尔曼滤波
扩展增量动力分析
扩展有效独立法
扩展有限元法
扩底桩
扩底楔形桩
扩建
扩建工程
扩建改造
扩挖
扩散系数
扩翼型节点
扫地杆
扫描式冲击回波法
扭曲
扭曲变形
扭曲异形箱梁
扭矩
扭矩包络图
扭矩系数
扭矩限制
扭转
扭转中心
扭转分析
扭转刚度
扭转剪应力
扭转反应谱
扭转常量
扭转应力
扭转应变能
扭转微分方程
扭转效应
扭转水平力
扭转波
扭转特性
扭转角
扶壁式桥台
找形
找形分析
承力岔
承压板
承台
承台加固
承台形式
承台承载力
承插型盘扣式钢管支架
承轨层
承载力
承载力分析
承载力影响系数
承载力检测
承载力计算
承载力计算公式
承载力评价
承载力评估
承载力评定
承载力试验
承载性状
承载性能
承载机理
承载潜力
承载特性
承载索
承载能力
承载能力寿命
承载能力极限状态
承载能力评估
承载能力评定
承载能力试验
承载膺架
承重构件
承重索
技术
技术创新
技术参数
技术复杂性
技术性能
技术探讨
技术控制
技术措施
技术改进
技术改造
技术方法
技术构思
技术标准
技术特点
技术状况
技术状况评估规范
技术状况评定
技术状态
技术状态等级
技术研究
技术管理
技术经济分析
技术问题
技术风险
抄垫
抑制装置
抑振
抑振措施
抑流板
投影变形
投影差分
投标
投资-效益准则
抖振
抖振位移响应
抖振减振
抖振分析
抖振力
抖振响应
抖振性能
抖振时域分析
抗侧刚度
抗倒塌性能
抗倾覆
抗倾覆承载力
抗倾覆稳定
抗倾覆稳定性
抗倾覆设计
抗倾覆验算
抗冲击承载力
抗冻性
抗冻性能
抗剪
抗剪刚度
抗剪弹性模量
抗剪强度
抗剪性能
抗剪承载力
抗剪破坏形态
抗剪结构
抗剪能力
抗剪计算
抗剪计算公式
抗剪设计方法
抗剪试验
抗剪连接件
抗剪连接程度
抗剪退化
抗力
抗力分项系数
抗力劣化
抗力增大系数
抗力衰减
抗力退化
抗压弹性模量
抗压强度
抗变形能力
抗崩钢筋
抗弯刚度
抗弯加固
抗弯强度
抗弯性能
抗弯性能试验
抗弯承载力
抗弯承载能力
抗弯折效率
抗弯拉强度
抗弯疲劳性能
抗弯设计
抗扭刚度
抗扰动机制
抗拉强度
抗拉承载力
抗拉拔性能
抗拔不抗剪连接件
抗拔性能
抗拔桩
抗拔试验
抗振性能
抗推刚度
抗推刚度法
抗推拉刚性斜撑
抗撞
抗撞能力
抗比例变化
抗氯盐侵蚀
抗氯离子渗透性
抗水平力扩大基础
抗滑
抗滑安全系数
抗滑移
抗滑移稳定性
抗滑移试验
抗滑稳定性
抗滑系数
抗滑装置
抗滑试验
抗滑键
抗火性能
抗灾设计
抗裂
抗裂性
抗裂性分析
抗裂性能
抗震
抗震优化设计
抗震体系
抗震分析
抗震加固
抗震响应
抗震塑性损伤分析
抗震强度
抗震性能
抗震性能分析
抗震性能目标
抗震性能研究
抗震性能等级
抗震性能评价
抗震性能评估
抗震性能试验
抗震挡块
抗震措施
抗震支座
抗震支承体系
抗震构造措施
抗震梁桥
抗震概念设计
抗震榫
抗震模糊集
抗震特性
抗震理论
抗震研究
抗震约束体系
抗震结构
抗震结构体系
抗震能力
抗震能力状态
抗震薄弱方向
抗震行为
抗震计算
抗震设计
抗震设计准则
抗震设计指南
抗震设计方法
抗震设计规范
抗震设计计算
抗震设防标准
抗震设防烈度
抗震设防目标
抗震评估方法
抗震试验
抗震近似计算方法
抗震阻尼嚣
抗风
抗风分析
抗风安全
抗风性能
抗风措施
抗风稳定性
抗风行车准则
抗风设计
抗风运行准则
折减系数
折板间距
折点半径优化
折现率
折线先张全预应力梁
折线先张预应力混凝土梁
折线塔
折线形独塔斜拉桥
折线配筋
折线配筋先张梁
折线预应力
抛填施工
抛物线
抛物线单肋拱
抛物线拱
抛石防护
护套
护套开裂
护栏
护筒
抱柱梁
抽样分析
抽芯
拆架方式
拆桥
拆除
拆除成本
拆除方案
拆除方法
拉-压杆
拉-压杆模型
拉—压杆
拉丁超方抽样
拉丁超立方抽样
拉丁超立方抽样法
拉伸荷载
拉伸试验
拉剪相关关系
拉力
拉力测定
拉压杆
拉压杆模型
拉吊索
拉应力
拉拔强度
拉拔试验
拉挤工艺
拉杆
拉杆—压杆模型
拉杆倾角
拉格朗日方程
拉森IV
拉森钢板桩围堰
拉索
拉索养护
拉索减振
拉索减隔震支座桥梁
拉索减震支座
拉索分段
拉索初张力
拉索单元
拉索垂度效应
拉索失效
拉索局部振动
拉索拱桥
拉索振动
拉索损伤
拉索摩擦摆支座
拉索梁端锚固
拉索设计
拉索阻尼系统
拉索限位器
拉索风雨激振
拉靠墩系统
拍
拍振
拐点
拓宽
拓宽宽度
拓宽改造
拓宽方式
拓宽方案
拓宽结构
拓宽设计
拓建工程
拓扑
拓扑优化
拓扑理论
拖拉
拖拉式
拖拉法
拖轮
拟力法
拟合
拟合优度检验
拟合预测
拟静位移耦合系数
拟静力
拟静力分析
拟静力模型试验
拟静力正交试验
拟静力试验
拟静力试验研究
拧紧力矩
拱
拱-梁组合体系桥
拱上建筑
拱上建筑联合作用
拱上简支梁
拱圈
拱型桥面连续
拱塔
拱塔斜拉桥
拱座
拱座基础
拱座开裂
拱座转动
拱式体系
拱式梁桥
拱式渡槽
拱式纵梁
拱形桥塔
拱形钢塔
拱形钢塔斜拉桥
拱效应
拱架
拱架现浇
拱桥
拱桥加固
拱桥吊杆
拱桥吊装
拱桥垮塌
拱桥承台
拱桥拱肋
拱桥顶升
拱梁刚度比
拱梁刚构组合体系
拱梁组合
拱梁组合桥
拱段
拱涵
拱的弯曲
拱结构
拱肋
拱肋下挠
拱肋内倾角
拱肋刚度
拱肋吊装
拱肋吊装分析
拱肋外倾
拱肋定位
拱肋形式
拱肋截面
拱肋拼装
拱肋横撑
拱肋混凝土灌注顺序
拱肋矢跨比
拱肋系梁刚度比
拱肋预拼装
拱背
拱脚
拱脚倒三角区
拱脚变位
拱脚应力分布
拱脚连接结构
拱轴线
拱轴线控制
拱辅梁桥
拼宽桥
拼接
拼接方案
拼接桥梁
拼接模式
拼接翼板
拼接设计
拼装
拼装式
拼装式架桥机
拼装式涵洞
拼装接高
拼装支架
拼装方案
持时
持续发展
持续荷载
持续荷载作用
挂篮
挂篮施工
挂篮设计
挂蓝法
指导模式
指数标度
指标
指标体系
指标分析
挖井基础
挖空率
挠变
挠度
挠度,截面应力
挠度分析
挠度变化
挠度变形
挠度增大系数
挠度对比值
挠度影响线
挠度损伤度
挠度控制
挠度曲率
挠度测量
挠度测量系统
挠度理论
挠度监测
挠度观测
挠度计算及控制
挠度预测
挠曲
挠跨比
挡土墙
挡块
挡块性能模式
挡块碰撞破坏
挡墙拆除
挡墙重建
挡板形状
挡水墙
挡风板
挤压头连接锚固
挤压破碎带
挤土位移
挤土效应
挤密砂桩
挤扩支盘桩
振动
振动与噪声
振动与波
振动传播规律
振动传递
振动分析
振动加速度
振动压实
振动参数
振动台
振动台台阵试验
振动台模型试验
振动台试验
振动台试验：耗能钢筋
振动台阵试验
振动周期
振动响应
振动孔压
振动性能
振动感觉指标
振动控制
振动方程
振动机理
振动松弛
振动模态
振动沉管
振动测试
振动测量法
振动特性
振动环境
振动相对位移
振动舒适度
振动规律
振动试验
振动速度导纳
振动频率
振动频率法
振型
振型分解反应谱法
振型分解法
振型参与系数
振型参与质量系数
振型叠加法
振型方向
振型矩阵
振型耦合
振型节点法
振型贡献系数
振型载荷分布模式
振害诊断
振幅
振幅换算
振弦式应变传感器
振弦式应变计
振荡压实
捞碴筒
损伤
损伤位置识别
损伤分析
损伤分级
损伤刚度
损伤刚度预测
损伤及滞回耗能分布
损伤和带载系数
损伤响应
损伤因子
损伤塑性模型
损伤定位
损伤定住
损伤容限
损伤度
损伤性能指标
损伤指数
损伤指标
损伤指标法
损伤控制
损伤控制方法
损伤控制策略
损伤敏感度
损伤断裂
损伤时变模型
损伤机理
损伤极限状态
损伤检测
损伤模型
损伤水平
损伤混凝土梁
损伤演化
损伤特性
损伤状态
损伤率
损伤监测
损伤程度模糊评定
损伤程度识别
损伤脆弱性
损伤规律
损伤评估
损伤评估模型
损伤评定
损伤识别
损伤识别指数
损伤诊断
损伤鉴定
损伤预后和安全预后
损坏
损坏机理
损坏概率
损失
损失模型
损失比
损失识别
损耗因子
换梁
换梁方案
换算
换算截面
换算截面法
换算流域面积
换算薄壁箱梁
换索
换索顺序
捻缩效应
掉钻
排序研究
排放特性
排架桩
排桩
排水沥青路面
排水管
排水箱涵
掘进技术
探地雷达
探地雷达法
探析
探讨
接桩
接线路面
接缝
接缝优化设计
接缝设计
接缝错台
接触
接触-摩擦
接触分析
接触分析法
接触单元
接触压力
接触变形
接触对
接触应力
接触滑移理论
接触率
接触理论
接触碰撞
接触角
接触非线性
接触面受力
接长施工
接高
接高高度
控制
控制参数
控制图
控制技术
控制指标
控制措施
控制效果
控制方程
控制机理
控制测量
控制爆破技术
控制管理
控制系统
控制网
控制要点
控制面
推倒(Pushover)分析
推倒分析
推倒分析方法
推出试验
推力分配
推力控制
推力杆
推导
推广
推广运用
推置爆破
推覆分析
推送架设
措施
掺纤维
掺钢纤维配筋RPC
提升塔架
提升小波包
提升式
提升支架
提升站
提升门架
提梁小车
提梁机
提离
提篮式
提篮式拱桥
提篮式系杆拱
提篮拱
提篮拱桥
提载加固
提高
插值振型函数
插入损失
插打
搓管机
搭接工程
搭接长度
搭板
搭板跳车
摄像测量
摄动
摄动理论
摄影测量
摆动
摆索拉力支座
摇摆
摇摆墙刚度
摇摆式桥墩
摇摆抗震
摇摆隔震
摇臂
摇轴支座
摊铺沥青
摊铺温度场
摩尔库伦理论
摩擦
摩擦作用
摩擦副
摩擦力
摩擦单元
摩擦因数
摩擦学
摩擦性能
摩擦损失
摩擦摆
摩擦摆式支座
摩擦摆支座
摩擦摆隔震支座
摩擦效应
摩擦桩
摩擦滑动单元
摩擦滑移
摩擦特性
摩擦系数
摩擦耗能
摩擦耗能器
摩擦阻尼器
摩擦面
摩阻力
摩阻力矩
摩阻参数
摩阻损失
摩阻效应
摩阻系数
撑拉系统设计
撑杆-系杆体系
撑杆-系杆模型
撑杆”
撞击
撞击力
撞击力-撞深关系
撞击力撞深
撞击力时程
撞击性能
撞击时间
撞击模型
撞击破坏
撞击荷载
撞击角度
撞击速度
支井河大桥
支反力
支墩
支座
支座体系
支座偏心
支座偏移
支座分布
支座刚度
支座动反拉力
支座升降
支座反力
支座反力重分配
支座变位
支座复位
支座安装缺陷
支座布置
支座布置优化
支座布置形式
支座布置方案
支座强迫位移
支座形式
支座性能测试
支座抗剪
支座抗震性能
支座损伤
支座损伤指标
支座摩擦
支座摩擦作用
支座摩擦力
支座摩阻力
支座更换
支座水平反力
支座沉降
支座滑动
支座激励
支座病害
支座破坏
支座移动
支座空响
支座脱空
支座脱空处理
支座设置
支座转换
支座预偏心
支承
支承体系
支承刚度
支承形式
支承方式
支承长度
支护
支护方案
支护桩
支护系统设计
支护结构
支护结构施工
支护结构设计
支护设计
支持向量分类机
支持向量机
支持向量机法
支撑
支撑体系
支撑刚度
支撑控制
支撑柱
支撑稳定性
支撑系统
支撑结构
支架
支架体系
支架拆除
支架拆除时机
支架拼装
支架搭设
支架施工
支架法
支架法施工
支架现浇
支架现浇法
支架监控计算
支架组装
支架设计
支架钢绞线法
支架预压
支点角隅
支腿
支进河大桥
收敛沉降
收益期望值
收缩
收缩应变
收缩徐变
收缩徐变修正
收缩徐变效应
收缩效应
收缩裂缝
收费广场
改善型波形钢腹板组合梁
改建
改性树脂快速修复材料MRK
改性树脂抗滑层
改性树脂超薄抗滑磨耗层
改性沥青铺装层
改性沥青防水卷材
改性环氧树脂
改扩建工程
改河工程
改良幅度
改进
改进C-V模型算法
改进一维优化算法
改进变尺度
改进响应面法
改进型
改进措施
改进摄动法
改进方法
改进灰色—马尔科夫预测模型
改进的响应面法
改进的德尔菲法
改进的限幅最优控制
改进算法
改进谐波合成法
改进遗传算法
改进重要抽样法
改造
改造,监测
改造工程
改造方案
放坡开挖
故障
故障树分析
故障树法
故障诊断
效应分析
效果
效果-成本-寿命
效果评价
效率系数
效益
效益分析
敏感因子
敏感度
敏感度分析
敏感性
敏感性分析
敏感性因素
敏感百分比
敞开式TBM
散拼
散拼法
散拼法架设
散索套
散索鞍
散索鞍座
散索鞍支墩
敦格铁路
数值仿真
数值仿真分析
数值分析
数值分析法
数值拟合
数值方法
数值极限分析
数值模型
数值模拟
数值模拟计算
数值求解法
数值积分
数值算法
数值解与解析解耦合方法
数值解析算法
数值计算
数值计算分析
数值计算及试验
数值计算方法
数值计算法
数值试验
数值逆变换抽样方法
数值风洞
数字信号
数字图像
数字图像处理
数字图像法
数字图像相关法
数字散斑相关方法
数字散斑相关法
数字样机
数字高程模型
数学模型
数学解析式
数据
数据传递
数据分析
数据包络分析
数据变化率
数据同步采集
数据处理
数据失真识别
数据库
数据异常诊断
数据截断
数据查询
数据监测
数据管理
数据采集
数据预处理
数据驱动
数理统计
整体下河
整体几何缺陷
整体分析
整体刚度
整体制造
整体力学行为
整体受力
整体吊安
整体吊装
整体同步顶升
整体安装
整体平衡
整体式
整体式基础
整体式导向架
整体式桥台
整体式桥台桥梁
整体式桥梁
整体式空心板桥
整体式节点
整体性
整体性桥面
整体性能
整体性能分析
整体托架
整体拼装
整体损伤指数
整体提升
整体方案
整体易损性
整体桁架式
整体桥面
整体模型
整体沉放
整体浮运
整体滑移
整体焊接
整体稳定性
整体结构
整体翻转
整体节段
整体节点
整体节点杆件
整体装配式
整体钢桥面
整体钢箱梁
整体静力效应
整体顶升
整体顶升张拉
整体顶推
整体预制施工
整合资源
整孔预制
整束预应力
整桥—温度—重载耦合作用
整治
整节段
文克尔地基梁
文化
斜PHC管桩
斜交
斜交T梁
斜交墩
斜交弯梁桥
斜交拱桥
斜交支承
斜交整体板
斜交板桥
斜交桥
斜交桥墩
斜交梁桥
斜交盖板涵
斜交空心板
斜交空心板桥
斜交竖曲线
斜交简支梁桥
斜交箱梁桥
斜交角
斜交角度
斜交连续梁桥
斜交钢箱梁
斜交闭合框架
斜交隐盖梁
斜交高墩
斜向孤石
斜向风
斜塔斜拉桥
斜度
斜张拱桥
斜截面
斜截面承载力
斜截面承载能力分析
斜拉-悬吊协作体系桥
斜拉-悬吊协作桥
斜拉-悬索体系
斜拉-悬索协作桥
斜拉-自锚式悬索桥
斜拉-自锚式悬索组合
斜拉-自锚悬索组合体系
斜拉-连续刚构组合梁桥
斜拉-钢拱组合桥
斜拉扣挂
斜拉扣挂悬拼方法
斜拉扣挂悬臂拼接法
斜拉扣挂悬臂浇筑
斜拉扣挂方案
斜拉扣挂系统
斜拉扣索
斜拉拱桥
斜拉拱组合桥
斜拉桥
斜拉桥参数敏感性分析
斜拉桥拉索
斜拉桥桥塔
斜拉桥模型
斜拉索
斜拉索刚度
斜拉索吊结构
斜拉索垂度
斜拉索局部振动
斜拉索拱
斜拉索振动
斜拉索支承刚度系数
斜拉索桥梁
斜拉索病害
斜拉索索力
斜拉索长度
斜拉索非线性振动
斜拉结构
斜撑
斜支承
斜支承连续箱梁
斜桥
斜桩
斜梁桥
斜独塔斜拉桥
斜筋
斜索
斜腹板
斜腿刚构桥
斜腿刚架桥
斜腿约束作用
斜裂纹
斜裂缝
斜跨
斜跨异型拱桥
斜跨拱桥
斜跨钢拱桥
斜连续梁
斜连续箱梁桥
斜靠式拱桥
斜靠拱
斜靠拱桥
斜风
斜风效应
斜高墩
断丝
断层
断层跨越
断板工况
断桩
断桩事故
断桩处理方案
断索
断缝设置
断裂
断裂切度
断裂力学
断裂参数
断裂带
断裂应变
断裂抑制
断裂抗力
断裂疲劳
断裂能
断裂试验
断裂韧度
断裂韧性
断裂韧性( CTOD)
断轨力
断面损伤率
断面结构
斯特劳哈尔数
新型U形梁
新型减隔震支座
新型哑铃形
新型技术
新型材料
新型桥塔
新型盖板涵
新型移动模架
新型结构
新型辅助墩
新型隔震系统
新增吊杆
新奇检测技术
新工艺
新干线
新损伤参数
新施工方法
新旧桥基础沉降差
新月形拱
新月拱
新海湾大桥钢塔
新疆公路
新老混凝土
新陈代谢模型
方位角
方向参数
方向组合
方向脉冲效应
方形冻结管
方形多铅芯橡胶支座
方柱
方柱绕流
方案
方案优化
方案优选
方案对比
方案排队法
方案改进
方案比较
方案比选
方案研究
方案设计
方案评价
方案选型
方案选择
方法
方法应用
方法改进
方法浅析
方法研究
方程
方程求解
方钢管再生混凝土
施工
施工仿真
施工优化
施工便线
施工偏差
施工全过程
施工分析
施工动画
施工原理
施工参数
施工吊桥
施工处理
施工安全
施工工序
施工工艺
施工工艺和流程
施工平台
施工性
施工性能
施工扣索
施工技术
施工控制
施工控制技术
施工控制方法
施工控制网
施工支架
施工效率
施工方案
施工方案选择
施工方法
施工期
施工期时变可靠度
施工机械
施工条件
施工标准化
施工栈桥
施工模拟
施工步骤
施工测量
施工特性
施工状态
施工独立控制网
施工猫道
施工环境影响
施工监控
施工监测
施工碎石
施工稳定
施工管理
施工精度
施工索力
施工组织
施工组织方案
施工组织设计
施工缝
施工缺陷
施工荷载
施工要点
施工计划
施工设计
施工误差
施工质量
施工过渡
施工过程
施工过程控制
施工进度
施工问题
施工阶段
施工阶段模拟
施工难点
施工顺序
施工预警
施工风险分析
施工风险评判方法
施救吊装
旋挖挤扩桩
旋挖钻
旋挖钻孔
旋挖钻机
旋涡
旋涡演化规律
旋涡脱落机制
旋转式伸缩装置
旋转挂架
旋转机理
旋转顶升
无伸缩缝
无伸缩缝桥梁
无便梁顶进
无劲性骨架
无单元法
无吊索区
无声破碎
无应力夹角
无应力尺寸
无应力构形控制
无应力状态
无应力状态控制
无应力状态控制法
无应力状态法
无应力状态量
无应力索长
无应力索长控制
无应力索长误差
无应力长度
无抗风缆猫道
无拉应力锚索
无损分析
无损性切割
无损性拆除
无损性钻切
无损检测
无损监测
无接触
无推力拱桥
无支护
无支架
无支架施工
无支架缆索吊装
无收缩
无条件模拟
无条件稳定
无极绳牵引
无桥台斜腿刚架桥
无梁板
无梁板桥
无梁楼盖
无渗透排水
无砟轨道
无砟轨道-桥梁
无砟轨道约束
无碴桥面
无碴轨道
无粘结筋
无粘结部分顸应力混凝土梁
无粘结预应力
无粘结预应力筋
无粘结预应力钢筋
无索区
无索区长度
无线传感器
无线传感器网络
无线监测
无缝伸缩缝
无缝桥
无缝桥梁
无缝桥面
无缝线路
无背索
无背索斜拉拱桥
无背索斜拉桥
无背索矮塔斜拉桥
无背索部分斜拉桥
无落地式支架
无量纲化
无量纲参数
无铆连接
无铰拱
无铰拱桥
无铰拱结构
无锡地铁2号线
无降温管
无限元法
无风撑拱肋
无黏结
无黏结预应力
无黏结预应力筋
无鼓泡
既有
既有刚架拱桥
既有城市桥梁
既有桥
既有桥梁
既有线
既有结构
既有钢筋混凝土梁桥
既有铁路
既有铁路桥
日光老化试验
日常大风
日应力谱
日本规范
日照
日照温差
日照温度
日照温度场
日照温度效应
旧桥
旧桥加固
旧桥承载力
旧桥承载力评定方法体系
旧桥拆除
旧桥拓宽
旧空心板简支桥
早拆头
早期开裂
早期组合作用
早期裂缝
早龄期
时-温等效原理
时变
时变分析
时变刚度
时变功率谱
时变可靠度
时变可靠性
时变失效概率
时变对流模式
时变性
时变抗剪强度
时变效应
时变易损性分析
时变模型
时变系统
时变索力识别
时变线性动力系统
时变规律
时变锈蚀概率模型
时域
时域分析
时域法
时效变形
时温条件
时温等效原理
时滞
时滞神经网络电路实验
时程
时程分析
时程分析方法
时程分析法
时程动力响应
时程反应分析
时程曲线
时程频谱结合分析方法
时间历程法
时间变量
时间序列
时间效应
时间相关可靠度
时频分析
时频域
时频域分析
时频特性
明挖法
明洞
易损性
易损性分析
易损性曲线
易损性曲面
易损部位
显式动力接触算法
显著性检验
晟小余能原理
普通板式支座
普通板式橡胶支座
普通混凝土
普通空心板
景观
景观悬索桥
景观技术
景观桥
景观桥梁
景观照明
景观设计
景观评价
晶须混凝土
智能交通
智能优化算法
智能关联主模型
智能养护
智能压浆
智能张拉
智能控制
智能材料
智能注浆控制仪
智能结构
智能设计推理
智能预应力
暂态主缆
暂态结构
暴雨内涝
暴雨推理法
暴雨管理体系
暴露试验
曲塔
曲弦下承式钢管混凝土桁梁桥
曲弦桁梁桥
曲梁
曲梁单元
曲率
曲率分布
曲率半径
曲率延性
曲率延性指标
曲率延性系数
曲率模态
曲率模态差法
曲率模态方法
曲率比
曲线
曲线T构
曲线刚构
曲线刚构-连续组合形式梁桥
曲线刚构桥
曲线匝道桥
曲线匝道桥梁
曲线半径
曲线布置
曲线底板
曲线形连续刚构桥
曲线形钢箱梁
曲线拟合
曲线拱桥
曲线斜拉桥
曲线桥
曲线桥梁
曲线梁
曲线梁桥
曲线梯形薄壁箱梁
曲线箱梁
曲线箱梁桥
曲线粱
曲线粱桥
曲线组合梁
曲线结合梁
曲线轨道梁
曲线连续刚构
曲线连续刚构桥
曲线连续宽箱梁
曲线连续梁
曲线连续梁桥
曲线部分
曲线部分斜拉桥
曲线钢-混凝土结合梁
曲线钢箱梁
曲线预应力连续梁桥
曲线预应力钢筋
曲轴构件
曲面套箱
曲面形浮箱
更换
更换技术
更高速度
最不利荷载
最优
最优估计
最优加固方案
最优参数
最优序列控制
最优抵偿投影面
最优目标控制参数
最优粘滞阻尼系数
最优索力
最优阻尼参数
最优阻尼系数
最佳交叉角度
最佳含水率
最佳掺量
最危险截面
最大主应力
最大侧移限值
最大值外推
最大双悬臂
最大双悬臂状态
最大干密度
最大悬臂
最大悬臂阶段
最大承载力
最大挠度
最大撞击力
最大正位移
最大正弯矩
最大水平位移
最大滑移限值
最大熵
最大熵原理
最大熵谱
最大竖向位移
最大统计风速
最大释放率准则
最大隶属度原则
最小二乘支持向量机
最小二乘法
最小二乘法拟合
最小入土深度
最小净长度
最小势能
最小势能原理
最小弯曲能量
最小弯曲能量法
最小搭接长度
最小支承长度
最小能量法
有感系数
有效分布宽度
有效刚度
有效宽度
有效宽度系数
有效应力
有效应力状态
有效张拉力
有效性
有效搭接长度
有效桩长
有效模型
有效模量龄期调整
有效温度
有效独立法
有效约束集法
有效长度
有效预压应力
有效预应力
有效预应力,识别
有效预应力测试
有机水硬性复合材料
有机玻璃模型
有机玻璃模型试验
有机结合
有机预应力
有粘结体外预应力
有粘结预应力
有缝桥梁
有缺陷30m空心板
有轨电车
有限体积法
有限元
有限元-无网格耦合法
有限元MIDAS/CIVIL
有限元m法
有限元仿真
有限元仿真全桥模型
有限元仿真模拟
有限元修正
有限元分析
有限元分析方法
有限元分析软件
有限元单元法
有限元可靠度法
有限元建模
有限元数值
有限元数值模拟
有限元方法
有限元模型
有限元模型修正
有限元模型修正方法
有限元模型拼接
有限元模型更新
有限元模型确认
有限元模拟
有限元法
有限元法结构优化
有限元混合模型
有限元理论
有限元理论模型
有限元程序
有限元计算
有限元计算模型
有限元非线性分析
有限单元柔度法
有限单元法
有限差分
有限差分法
有限差分解
有限杆单元法
有限条法
有限梁段单元
有限梁段法
有限段法
服役
服役性能
服役桥梁
朔黄铁路
朝天门大桥
木-混凝土组合梁
木拱桥
木构件
木结构古建筑
未知荷载系数法
未确知测度
本征正交分解
本期变化量
本构关系
本构方程
本构模型
机制砂
机加工
机器视觉
机敏网
机敏膜
机构分析法
机架桥
机械工程
机械性能
机械设备
机理
机理分析
机理研究
机电工程
机翼
机臂水平
机载电池
杂交应力
权矩阵
权重
权重修正
权重值
权重划分
权重向量
杆件结构
杆单元
杆端缩尺
李家沙
材料
材料参数
材料及焊接工艺检测
材料廷性
材料强度
材料性能
材料成本
材料用量
材料设计
材料费用
材料非线性
村镇砌体结构
束效应
束缚面碰撞单元
杠杆
杠杆质量阻尼器
条件模拟
杭州九堡大桥
杭州湾跨海大桥
杭长铁路
杯口状断口
松弛
松弛率
松散沉积层
板-拱组合作用
板-桁组合式钢桁梁
板-桁组合结构
板单元
板单元模型
板单元法
板壳模型
板式加劲梁
板式橡胶支座
板式橡胶支座(LRB)
板式橡胶支座梁桥
板形
板桁主梁
板桁组合体系桥梁
板桁组合桥
板桁组合结构
板桁结合
板桁结合型加劲梁
板桩
板梁刚度
板梁单元
板梁桥
板理论
板管节点
板结构
极值Ⅰ型分布
极值估计
极值外推
极值应力
极值理论
极值预测
极值预测公式
极值风速
极大似然法
极端地震输入
极端荷载
极限位移
极限位移角
极限分析理论
极限剪切强度
极限墩高
极限平衡法
极限应力
极限应变
极限强度
极限扭矩计算理论
极限承载力
极限承载力法
极限承载力评估
极限承载性能
极限承载能力
极限抗剪强度
极限抗压强度
极限抗弯承载力
极限抗拉强度
极限拉应变
极限曲率
极限状态
极限状态受力
极限状态方程
极限状态法
极限状态法设计
极限状态设计
极限状态设计法
极限状态评估
极限粘结强度
极限荷载
极限跨径
极限长度
极限静阵风
构件
构件失效
构件超载
构形
构造
构造参数
构造措施
构造柱
构造正交异性桥面板
构造比例
构造深度
构造细节
构造设计
构造钢筋
枢纽互通
枢纽互通式立交
架桥机
架梁
架梁吊机
架梁方案
架空结构
架空顶进
架设
架设工艺
架设方案
架设施工
架设精度
架设阶段
柔度
柔度效应
柔度矩阵
柔度系数
柔性中央扣
柔性体
柔性保护层
柔性反射边界
柔性墩
柔性墩台
柔性密封防护
柔性悬索桥
柔性拱
柔性拱刚性梁
柔性拱施工
柔性桥墩
柔性管
柔性系杆
柔性车体
柔性载荷试验
柔性连接
柔性防水保护层
柔性高墩
柱
柱式柔性墩
柱式锚箱
柱板式
柱板式空心墩
柱板式空心高墩
柱板式高墩
柳州维义大桥
柴油机
栀子苷
标准
标准(规范)
标准K-ε湍流模型
标准体系
标准养护
标准化
标准化设计
标准差
标准拱
标准拱桥
标准梁
标准梁型
标准疲劳车
标准荷载谱
标准规范
标准贯入击数
标准贯入度试验击数
标准车辆荷载
标定
标定瞬时单位线
标定车辆
标度评价
标记线法
标高
标高偏差
标高控制
标高调整
栈桥
栈桥施工
栈桥设计
栏杆
树杈形装饰构件
树根桩
树脂吸附
树脂基碳纤维智能层
树脂沥青组合体系
树脂注入式螺栓连接
栓接
栓焊结构
栓焊连接
栓钉
栓钉剪力连接件
栓钉剪力键
栓钉群钉剪力连接件
栓钉连接件
栓钉锈蚀
校准
校园规划
校验系数
样本填充准则
样条曲线
核主成分分析
核密度估计
核心价值
核心性能参数
核心混凝土
核电站
根式基础
根式沉井
格子Boltzmann方法
格子玻尔兹曼方法
格库铁路
格构桥面系
格栅湍流风场
格栅钢架
桁-拱叠加模型
桁宽
桁式索拱桥
桁式组合拱
桁式组合拱桥
桁拱
桁架
桁架-拱模型
桁架式
桁架式扣塔
桁架式拱肋
桁架拱
桁架拱桥
桁架拱模型
桁架支撑体系
桁架断面
桁架格构式支撑装置
桁架桥
桁架梁悬索桥
桁架结构
桁架连续刚构桥
桁梁
桁梁-桁拱
桁梁桥
桁梁结合梁
桁片结构
桁肋
桁腹式组合桁梁
桅杆
框剪结构
框构桥
框架
框架—摇摆墙结构
框架分析法
框架地道桥
框架墩
框架式
框架式桥墩
框架柱
框架桥
框架梁
框架涵
框架简支板
框架箱涵
框架结构
框架节点
框架高墩
案例分析
案例研究
桥
桥上无缝线路
桥上桥
桥上轨道结构
桥位
桥位地形
桥位桥式选择
桥位焊接
桥位选择
桥体伸缩度
桥体裂痕
桥区
桥台
桥台位移
桥台倾斜
桥台刚度
桥台处伸缩缝
桥台岸坡
桥台桩基
桥台结构-桩-土动力相互作用
桥址
桥址区
桥址钻孔
桥型
桥型优化
桥型布置方案
桥型方案
桥型比选
桥型选择
桥基
桥基础
桥塔
桥塔偏位
桥塔基础
桥塔墩
桥塔钢管
桥墩
桥墩侧移曲线
桥墩冲刷
桥墩冲刷防护
桥墩分岔区
桥墩刚度
桥墩变高度
桥墩基底
桥墩基础
桥墩壅水
桥墩处伸缩缝
桥墩布置
桥墩布置方式
桥墩形式
桥墩承台
桥墩抗力
桥墩水痕
桥墩沉降
桥墩纵向水平刚度
桥墩结构
桥墩补强
桥墩设计
桥墩间
桥墩间距
桥墩防冲工程
桥墩防撞
桥墩预制
桥墩高差
桥墩高度
桥头
桥头搭板
桥头斜坡岩土体
桥头沉降差
桥头线形
桥头路基
桥头跳车
桥孔布置
桥孔长度
桥建合一
桥式方案
桥式结构
桥桩
桥桩前移
桥梁
桥梁上部结构
桥梁下部结构
桥梁主梁节段
桥梁事故
桥梁伸缩缝
桥梁伸缩装置
桥梁倒塌
桥梁倒塌分析
桥梁健康监测
桥梁健康监测系统
桥梁全寿命周期成本
桥梁全寿命设计方法
桥梁养护
桥梁减振
桥梁加固
桥梁加固混凝土
桥梁加宽
桥梁加速度
桥梁动力响应
桥梁动应变响应
桥梁动态称重
桥梁动载试验
桥梁博士
桥梁变形
桥梁地震反应分析
桥梁地震易损性
桥梁坍塌
桥梁型式
桥梁垮塌
桥梁基础
桥梁基础加固
桥梁基频
桥梁墩台
桥梁壅水
桥梁失效
桥梁安全
桥梁安全性
桥梁工程
桥梁工程,桩基础
桥梁工程施工
桥梁工程桩基础
桥梁布置方案
桥梁布设
桥梁建筑
桥梁建筑材料
桥梁建设
桥梁形变
桥梁性能
桥梁找型
桥梁承载力
桥梁承载能力
桥梁承载能力评定
桥梁技术状况
桥梁抗震
桥梁抗震加固
桥梁抗震规范
桥梁抗震设计
桥梁抗震设计规范
桥梁护栏
桥梁拆除
桥梁拉索钢丝
桥梁拓宽
桥梁拼宽
桥梁拼接
桥梁挠度
桥梁挡块
桥梁振动
桥梁振动响应
桥梁振动环境影响评价
桥梁损伤
桥梁损伤评估
桥梁排架
桥梁排水
桥梁搭板
桥梁支座
桥梁支撑架
桥梁改建
桥梁改造
桥梁数据
桥梁断桩
桥梁断面
桥梁断面三分力
桥梁方案
桥梁施工
桥梁施工临时结构
桥梁施工安全管理
桥梁施工技术
桥梁施工控制网
桥梁施工阶段
桥梁施工风险
桥梁易损性
桥梁景观
桥梁机械
桥梁构件
桥梁构件设计使用寿命
桥梁架设
桥梁桩基
桥梁桩基础
桥梁检查
桥梁检测
桥梁检测车
桥梁检算
桥梁模型
桥梁横向
桥梁水下基础
桥梁水害预警
桥梁测试
桥梁混凝土
桥梁温度跨度
桥梁灌注桩
桥梁火灾安全
桥梁烧损
桥梁状态监测
桥梁状态评估
桥梁环境
桥梁现场
桥梁用结构钢
桥梁用钢
桥梁病害
桥梁监测
桥梁知识库
桥梁破损检测
桥梁碰撞
桥梁管养
桥梁管养系统
桥梁管理
桥梁管理系统
桥梁系统可靠性
桥梁线形
桥梁线形与内力
桥梁结构
桥梁结构健康监测
桥梁结构变形
桥梁结构损伤
桥梁结构标准化
桥梁结构物
桥梁结构设计
桥梁结构评估
桥梁结构静载试验
桥梁维修
桥梁维修加固
桥梁维护
桥梁缆索
桥梁网络
桥梁美学
桥梁群设计
桥梁耐久性
桥梁耐久性设计
桥梁耐久性评估
桥梁船撞
桥梁色彩
桥梁艺术
桥梁节段模型
桥梁荷载
桥梁荷载试验
桥梁裂纹
桥梁规范
桥梁设计
桥梁设计专家系统
桥梁设计阶段
桥梁评估
桥梁试验与设备
桥梁跨度
桥梁转体
桥梁选址
桥梁选型
桥梁钢
桥梁防撞结构
桥梁防撞装置
桥梁防撞设计
桥梁防船撞系统
桥梁限载
桥梁隔震
桥梁集群
桥梁震动
桥梁震害
桥梁面板
桥梁顶升
桥梁顺河道布置
桥梁预应力
桥梁预警系统
桥梁预防性养护
桥梁颤振
桥梁风致振动
桥梁风致灾害
桥梁风险评估
桥梁高支模
桥梁高桩承台体系
桥涵
桥涵加固
桥涵勘测
桥涵台背回填材料
桥涵工程
桥涵施工
桥涵顶进施工
桥碰撞
桥粱工程
桥粱施工
桥系统
桥群
桥节门桥
桥跨布置
桥轴坐标系
桥道断面
桥长
桥隧工程边坡
桥隧搭接
桥隧方案
桥隧相接
桥隧相连
桥隧相连工程
桥隧相连段
桥隧结构
桥隧过渡段
桥隧邻接工程
桥面
桥面不平度
桥面不平顺
桥面取梁
桥面吊机
桥面吊装
桥面局部风环境
桥面布置
桥面平整度
桥面径流收集
桥面旋转
桥面板
桥面板刚度
桥面焊接细节
桥面病害
桥面相对高度
桥面粗糙度
桥面系
桥面系置换
桥面线形
桥面线形变化
桥面结构
桥面肋板结构
桥面连续
桥面铺装
桥面铺装层
桥面铺装温度
桥面防护
桥面预制
桥龄
桩
桩-土-承台
桩-土-承台模型
桩-土-桥梁结构地震动力相互作用
桩-土-结构相互作用
桩-土作用
桩-土动力相互作用
桩-土相互作用
桩-桩相互作用
桩侧压浆
桩侧土压力
桩侧土弹性模量
桩侧土摩阻力
桩侧摩阻力
桩侧阻力
桩后压浆
桩土共同作用
桩土应力比
桩土相互作用
桩土耦合作用
桩基
桩基U型结构路堤
桩基事故
桩基加固
桩基外露
桩基局部冲刷
桩基屈曲
桩基工程
桩基弹性
桩基托换
桩基承台挡墙
桩基承台梁
桩基承载力
桩基承载性状
桩基拔除
桩基施工
桩基模拟
桩基础
桩基础对桥墩的约束刚度
桩基础施工
桩基础桥台
桩基础桥梁
桩基础溶洞处理
桩基础类型
桩头处理
桩头预留高度
桩底压浆
桩底嵌岩锚杆
桩底注浆
桩承台
桩板梁
桩板结构
桩柱
桩柱式桥台
桩柱式桥墩
桩柱式桥梁
桩端后压浆
桩端承载力
桩端荷载分担比
桩端阻力
桩缺陷
桩群
桩身位移
桩身压缩综合系数
桩身变形
桩身完整性
桩身轴力
桩长
桩间距
桩顶压力
桩．土相互作用
梁
梁-拱组合
梁-板混合单元
梁体内力
梁体内力分析
梁体开裂
梁体扭矩
梁体滑移
梁加固
梁单元
梁单元法
梁厂布置
梁墩分离
梁宽跨比
梁底曲线
梁底曲线指数
梁底高差
梁式支架
梁式桥
梁式桥梁
梁式结构
梁式锚箱
梁截面特性值
梁拱组合
梁拱组合人行天桥
梁拱组合体系
梁拱组合桥
梁拱组合桥梁
梁板法
梁柱效应
梁柱瞬态分析
梁格分析
梁格模型
梁格法
梁桁组合桥
梁桁组合结构桥
梁桥
梁桥墩柱
梁桥施工
梁桥结构
梁段
梁段制造
梁段拼装
梁段有限元法
梁比拟法
梁端
梁端伸缩装置
梁端位移
梁端竖向折角
梁端索梁锚固系统
梁端转角
梁端锚固
梁端锚固系统
梁结构
梁轨互作用力
梁轨相互作用
梁轨相对位移
梁轨纵向相互作用
梁高
梁高跨比
梯度优化法
梯度温度
梯形加劲肋
梯形沟谷
梯形盖板
梯形箱梁
梯段爆破
梳齿板式
检修车
检修车轨道
检修通道
检出概率
检查
检查维修
检查车轨道
检测
检测与评定
检测加固
检测成本
检测技术
检测方法
检测精度
检测系统
检测评估
检测评定
检测间隔
检测／监测
检算
检算与评定
检算系数
检验
检验滤波
植入式
植筋
植筋抗震性能
植筋间距
椒江二桥
概化汇流曲线
概念
概念设计
概率
概率优化
概率分布
概率分布函数
概率分布模型
概率分析
概率可靠度
概率地震需求分析
概率地震需求模型
概率密度演化方法
概率性分析
概率性地震需求分析
概率性地震需求模型
概率抗震能力
概率断裂模型
概率方法
概率有限元
概率模型
概率特征
概率理论
概率神经网络
概率统计
概率统计模型
概率网络估算法
概率评价模型
概率需求模型
概率预测
概算
概述
榫头
槽口
槽型梁
槽型组合梁
槽形曲梁
槽形梁
槽形连续梁
槽形钢梁
模具周转周期
模块化设计与实现
模型
模型修正
模型分析
模型实验
模型斜拉桥
模型更新
模型确认
模型简化
模型精度
模型精度评价
模型设计
模型评估
模型试验
模型降阶
模型验证
模式搜索法
模式识别
模态
模态保证准则
模态分析
模态匹配
模态参数
模态参数识别
模态叠加
模态叠加分析法
模态叠加法
模态坐标法
模态实验
模态应变能
模态应变能变异指标
模态挠度法
模态摄动法
模态曲率
模态曲率改变率
模态柔度
模态残差
模态测试
模态混叠
模态相似性
模态空间
模态综合法
模态耦合
模态识别
模态试验
模态调试
模态超越
模态阻尼比
模态频率
模拟
模拟优化
模拟分析
模拟模型
模拟试验
模拟退火算法
模拟驾驶
模数式
模数式桥梁伸缩缝
模板
模板体系
模板工程
模板支撑体系
模板支架方案
模极大值
模糊AHP
模糊优先排序
模糊决策理论
模糊变量
模糊可靠性
模糊层次分析
模糊层次分析法
模糊性
模糊控制
模糊推理
模糊故障树
模糊数学
模糊有限元法
模糊模式识别
模糊物元
模糊物元模型
模糊理论
模糊神经网络
模糊综合评价
模糊综合评价法
模糊综合评估
模糊综合评判
模糊综合评判法
模糊聚类分析
模糊聚类算法
模糊规则
模糊评价
模糊评价理论
模糊评判
模糊诊断
模量
模量组合
横向
横向位置
横向体外预应力
横向偏位
横向内力
横向内力值
横向减隔震
横向减震
横向分布
横向分布影响线
横向分布系数
横向分配
横向分配简化
横向刚度
横向刚性横联
横向力
横向加固
横向加筋注浆技术
横向反拱
横向受力
横向受力分析
横向受荷桩
横向地震
横向地震反应
横向地震激励
横向失稳
横向屈曲
横向应力
横向应变
横向弯矩
横向抗弯设计
横向抗震体系
横向抗震性能
横向抗震需求
横向拓宽
横向拼接
横向挡块
横向振动
横向振动试验
横向振幅
横向损伤
横向撞击荷载
横向收缩
横向效应
横向极端地震作用
横向框架
横向框架效应
横向水平位移
横向涡激振动
横向温差
横向温度应力
横向温度效应
横向温度梯度
横向碰撞
横向碰撞效应
横向碰撞模型
横向移位
横向稳定
横向稳定性
横向系杆法
横向约束
横向联系
横向荷载
横向裂缝
横向连接
横向连接刚度
横向连接损伤
横向钢筋间距
横向限位
横向顶推
横向预偏量
横向预应力
横向预应力束
横坡
横张位移
横张力
横张增量法
横张预应力
横截面温差模式
横撑
横撑数量
横撑连接方式
横断面形状
横桥向
横桥向地面运动
横梁
横梁内力
横梁刚度
横梁受力
横梁施工
横梁构造
横琴二桥
横移
横移台车
横移式缆索吊机
横移轨(滑)道
横系梁
横置行车道板
横肋板
横隔墙
横隔板
横隔板-U肋焊接构造
横隔板加固
横隔板圆弧过渡处
横隔板布置方式
横隔板挖孔
横隔板空孔
横隔板缺口
横隔梁
横风作用
横风效应
橡胶
橡胶减振支座
橡胶层
橡胶支座
橡胶沥青
橡胶混凝土
橡胶混凝土砖
橡胶粉SMA
橡胶缓冲垫
橡胶缓冲装置
橡胶隔震支座
次内力
次序定律
次序统计量模型
次应力
欧拉公式
欧拉梁
欧氏贴近度
欧洲标准
欧洲规范
止摆
止摆措施
止水
止水帷幕
止水措施
正交多项式拟合法
正交异形桥面
正交异性
正交异性整体钢桥面
正交异性整体钢桥面板
正交异性板
正交异性板整体桥面系
正交异性板桥面
正交异性桥面
正交异性桥面板
正交异性钢悬臂板拓宽方法
正交异性钢桥
正交异性钢桥桥面铺装
正交异性钢桥面
正交异性钢桥面板
正交异性钢箱梁
正交条件
正交设计
正交试验
正交试验设计
正压力
正常使用
正常使用极限状态
正常使用状态
正应力
正式支座
正循环钻孔灌注桩
正态分布
正截面
正截面受弯承载力
正截面承载力
正装-迭代
正装分析
正装分析法
正装迭代法
步履式
步履式多点连续顶推
步履式平移顶推装置
步履式顶推设备
步行桥
步行荷载
步进加载
武广客运专线
武汉二七长江大桥
武汉军山长江大桥
武汉长江大桥
残余伸长率
残余位移
残余位移谱
残余变位
残余变形
残余应力
残余应变
残余徐变变形
残余承载力
残余承载能力
残余抗剪承载力
残余滑移量
残差
残差补偿
残留位移
残留层
比例法
比例视诱法
比例距离
比值谱
比对试验
比拟杆法
比拟板-梁格法
比拟板—梁格法
比拟正交异性板法
比率
比较
比较分析
比较研究
比选
毕业设计
民用规范
气举反循环
气候变化
气动优化
气动减振措施
气动力
气动力参数
气动力系数
气动力荷载
气动参数
气动参数识别
气动外形影响
气动导数
气动导纳
气动导纳函数
气动导纳识别
气动干扰
气动干扰因子
气动干扰效应
气动性能
气动控制
气动控制措施
气动措施
气动特性
气动状态
气动稳定性
气动系数
气动翼板
气动耦合
气动能量
气动阻尼
气囊法
气囊法下水
气孔结构
气幕发生器
气弹模型
气泡
气象参数
气象学分析法
氯丁橡胶支座
氯盐
氯盐侵蚀
氯盐环境
氯离子
氯离子侵蚀
氯离子扩散模型
氯离子渗透
氯离子渗透性
氯离子结合能力
水-桥墩相互作用
水-结构相互作用
水上作业平台
水上加载
水上安装拼接成薄壁壳体
水上平台
水下
水下不分散混凝土
水下工程
水下延时爆破
水下承台
水下拖缆
水下施工
水下桩墩结构
水下祼爆
水下结构
水下聚能爆破
水中基础
水中墩
水中承台
水中桩基加固
水中沉井
水位
水位变化
水体压缩性
水净华新桥
水分传输
水利工程
水力学特性
水力旋流器
水动力
水动力学
水化热
水化热分析
水化热效应
水化热温度场
水压法
水压爆破
水害实时预报
水害预报
水富横江大桥
水工混凝土
水平K撑
水平临界荷载
水平位移
水平侧向力加载模式
水平力
水平力施加
水平反复荷载
水平变形
水平向
水平地震力
水平地震动
水平地震波输入最不利方向
水平地震输入最不利方向
水平承载特性
水平拉索
水平振动
水平推力
水平极限荷载
水平激励
水平等效刚度
水平索力分配值
水平荷载
水平荷载试验
水平转体
水平载荷试验
水平钢拉杆
水平预拼
水平预拼装
水平预顶
水库
水撼法施工
水文分区
水文分析
水文研究
水文设计
水毁
水泥
水泥净浆
水泥基
水泥复合土
水泥搅拌桩
水泥混凝土
水泥混凝土含水率
水泥混凝土桥
水泥混凝土桥梁
水泥混凝土桥面
水泥用量
水泥砂浆
水泥稳定砂砾
水泥细度与组成
水洗凿毛
水流
水流力
水流夹角
水流路径长度
水深
水源地保护
水滴形钢结构主塔
水灰比
水灾害
水电工程
水电站
水痕
水碧桥
水磨钻
水箱预压
水纹
水线
水膜
水袋预压
水路
水路运输
水锤效应
水闸底板
永久位移效应
永久变形
永久应变势
永久钢护筒
永久预应力
永定新河特大桥
求解
求解方法
求解条件
江山特大桥
江阴大桥
江顺大桥
汶川8.0级特大地震
汶川地震
汶川大地震
汶川强震记录
汽油发动机
汽车
汽车-列车-桥梁耦合
汽车吊机
汽车工程
汽车撞击
汽车效应
汽车栈桥
汽车燃烧
汽车荷载
汽车荷载响应
汽车荷载标准
汽车荷载模型
汽车超载
汽车轮轴特征
沈阳枢纽
沉井
沉井-地基相互作用
沉井基础
沉井封底技术
沉井承载力
沉桩
沉桩速度
沉桩阻力
沉没比
沉管
沉管灌注桩
沉管隧道
沉箱
沉箱基础
沉降
沉降分析
沉降变形
沉降差
沉降影响
沉降控制
沉降模拟
沉降监测
沉降观测
沉降计算
沉降计算深度
沉降速率
沉降量
沉降预测
沉陷失效
沙坪大桥
沙堆比拟法
沟埋涵洞
沥青摊铺
沥青混凝土
沥青混凝土桥面铺装
沥青混凝土路面
沥青混凝土铺装层
沥青混凝士桥面铺装层
沥青混合料
沥青混合料性能试验机
沥青粘度
沥青路面
沥青铺装
沥青铺装层
沥青马蹄脂碎石
沪杭铁路客运专线
沪通铁路长江大桥
沪通长江大桥
河冰
河势
河势条件
河床
河床岩面
河床演变
河床防护
河段特征
沼泽地
沿海
沿海浅滩
沿线跟踪
泄水法
泉州湾
泊松比
法向拉应力
法国规范
法律制度
泡沫剂
波传播
波动理论
波场特征
波形对比
波形材料
波形梁护栏
波形钢
波形钢板
波形钢板涵洞
波形钢腹板
波形钢腹板Ⅰ型钢梁
波形钢腹板梁
波形钢腹板混凝土组合梁
波形钢腹板箱梁
波形钢腹板组合T梁
波形钢腹板组合梁
波形钢腹板组合梁桥
波形钢腹板组合箱梁
波形锚
波形齿锚具
波折开孔板
波折钢腹板
波流力
波浪作用
波浪力
波浪效应
波浪特征
波浪荷载
波纹形状
波纹管
波纹管涵
波纹钢拱涵
波纹钢板
波纹钢板拱桥
波纹钢腹板
波纹钢腹板体外预应力箱梁
波纹钢腹板桥梁
波纹钢腹板箱梁
波速
波速变化
波速测试
波阻抗变化
波高
泥水盾构
泥沙运动
泥浆循环
泥浆护壁
泥炭质土
泥石流
泥膜
注意事项
注浆
注浆加固
注浆模拟
注浆法
注浆短管
注浆缺陷
注浆范围
注浆补强
注浆质量
注浆预加固
注浆饱满度
泰州大桥
泰州长江公路大桥
泰州长江大桥
泵送压力
洋口港
洛泽拱
洞周围岩
洞庭湖
津保铁路
洪峰水位
洪峰流量
洪峰滞时
洪桥
洪水位
活动支座
活动支座刚度贡献
活动支座摩擦作用
活动支座状态
活动支架
活动栈桥
活动配重
活性粉末混凝土
活性粉末混凝土(RPC)
活断层
活荷载
活载
活载发展均衡系数
活载效应
活载标准
活载模式
活载横向分布调整系数
活载计算
流体力学
流体加热道路融雪系统
流体动力学
流体单元法
流冰
流动特性
流动蠕变区域
流变性
流变性能
流同耦合
流向
流固耦合
流场
流场分析
流场显示
流场机理
流场特性
流塑状
流塑状淤泥地质
流构耦合
流水化
流程图
流线型断面
流线型桥梁断面
流线型箱梁
流线形桥梁断面
流线形箱粱
流线形闭口箱梁
流致漂移
流速
流速分布
流量
流量影响线
流量影响线法
浅埋
浅埋偏压
浅埋式桩基础钢筋混凝土拱桥
浅埋桥基
浅层沼气
浅水区
浅海域
浅源地震
浅滩
浅滩区
浅置基础
浅覆盖地层
浅覆盖层
浆固碎砾石
浆液配比
浇注
浇注式沥青
浇注式沥青混凝土
浇注式沥青混凝土铺装
浇注式沥青混合料
浇注方案
浇筑
浇筑工艺
浇筑式
浇筑式沥青混凝土
浇筑技术
浇筑施工
浇筑时间间隔
浇筑温度
浇筑长度
测压
测斜仪
测斜管
测点
测点位移差
测算
测试
测试分析
测试数据分析
测试方法
测试验证
测量
测量不确定度
测量参数
测量控制
测量方法
测量机器人
测量监控
测量系统
测量误差
测频法
济南黄河三桥
浙江
浮吊
浮吊架设,施工技术
浮平台
浮式平台
浮桥
浮漂体系
浮运出坞
浮运沉井
浮运船
浮运阻力
浮龙门
海上大型桥梁
海上承台
海上栈桥
海上试验
海上锚碇
海冰
海啸作用
海域
海堤
海子山
海巡艇配备
海工混凝土
海工混凝土结构
海工高性能混凝土
海排粉煤灰
海沧大桥
海洋环境
海浪
海湾大桥
海潮影响区
海量数据
浸水试验
浸水静载试验
浸没边界
浸没边界法
浸深
涂料
涂膜镀锌
涂装
涂装检查
消压弯矩
消振
消能
消能防冲
涌浪
涡振
涡振性能
涡振性能评价
涡振控制
涡振机理
涡振限值
涡激共振
涡激力
涡激力参数识别
涡激力模型
涡激力识别
涡激振
涡激振动
涡脱
涡致振动
润扬大桥
润滑剂
液-气耦合
液体粘滞阻尼器
液体粘滞阻尼器FVD
液体质量双调谐阻尼器
液体黏滞阻尼器
液化特征
液化砂层
液压
液压千斤顶
液压同步顶升技术
液压振动桩锤
液压模板
液压测力传感器
液压滑移
液压爬模
液压爬模系统
液压牵引
液压系统
液压设备
液压调高
液压阻尼装置
液压顶推
液固耦合
液气耦合
涵洞
涵顶土压力
淤泥质土
淤泥质海岸
淮南线
深井抽排水
深井降水
深切峡谷
深化设计
深厚素填土
深厚软土
深厚软土地基
深埋式桥头搭板
深埋承台
深埋隧洞
深基坑
深基坑围护
深基坑开挖
深孔桩基
深季节冻土
深层水泥搅拌
深层混凝土搭板
深嵌岩桩
深度
深度效应
深桩
深梁
深梁理论
深水
深水刚构桥
深水基坑
深水基础
深水大桥
深水库区
深水急流
深水桥墩
深水桥梁
深水桩基
深水立管
深水群桩基础
深水裸岩区
深水高墩
深水高桩嵌岩桥墩
深长嵌岩桩
混凝土
混凝土T梁
混凝土T梁桥
混凝土中性化
混凝土主梁
混凝土伸臂箱梁
混凝土便桥
混凝土保护层厚度
混凝土刚构桥
混凝土压应变
混凝土原材料
混凝土变截面箱梁桥
混凝土塑性损伤
混凝土密实度
混凝土应力
混凝土应变
混凝土底板
混凝土开裂
混凝土强度
混凝土徐变
混凝土徐变效应
混凝土性能
混凝土截面角部
混凝土拉应力
混凝土拌和站
混凝土拱
混凝土拱桥
混凝土挡块
混凝土收缩徐变
混凝土斜拉桥
混凝土斜立柱桥墩
混凝土施工
混凝土曲线梁桥
混凝土板
混凝土板桥梁
混凝土板模型
混凝土构件
混凝土桥
混凝土桥塔
混凝土桥墩
混凝土桥墩及桥台
混凝土桥梁
混凝土桥梁耐久性
混凝土桥梁设计规范
混凝土桥粱
混凝土桥面
混凝土桥面板
混凝土桥面薄层铺装
混凝土桥面预制板
混凝土桩基础
混凝土梁
混凝土梁式桥梁
混凝土梁板
混凝土梁桥
混凝土梁桥桥面铺装
混凝土梁结构
混凝土楔体
混凝土榫
混凝土槽形梁
混凝土水化热
混凝土浇注
混凝土浇筑
混凝土灌注
混凝土灌注桩
混凝土界面
混凝土矮塔斜拉桥
混凝土矮箱梁桥
混凝土碳化
混凝土碳化寿命
混凝土空心薄壁墩
混凝土简支箱梁
混凝土箱形梁
混凝土箱梁
混凝土箱梁桥
混凝土类型
混凝土系杆拱桥
混凝土结合梁
混凝土结合面
混凝土结构
混凝土结构护栏
混凝土结构无损检测仪器
混凝土耐久性指标
混凝土肋式转向装置
混凝土自应力
混凝土自锚式悬索桥
混凝土色差
混凝土薄壁箱形结构
混凝土薄壁箱梁
混凝土表面
混凝土裂缝
混凝土质量
混凝土超方
混凝土转向块
混凝土连续梁
混凝土连续梁桥
混凝土连续箱梁
混凝土配合比
混凝土配比设计
混凝土铰缝
混凝土铺装
混凝土预制构件
混凝土预制箱梁
混合
混合FRP筋
混合主梁
混合减隔震
混合单元
混合变分原理
混合塔
混合壳单元
混合式主梁
混合式结合梁
混合式结构
混合控制
混合料
混合料试验
混合方法
混合有限元
混合梁
混合梁刚构桥
混合梁斜拉桥
混合梁连续刚构桥
混合模拟法
混合法
混合结构
混合编程
混合设计
混合配束
混合钢U肋加劲板
混合预应力加固
混杂系统
混杂纤维
混杂纤维布
混杂组合单元
混沌
混沌优化
混沌特性
淹没射流
淹没承台
清水混凝土
清渣
渐近发散振动
渐近法
渐进结构优化法
渗流-应力耦合
渡口河大桥
渡槽
渤海海域
温州七都大桥
温差
温差作用效应
温差应力
温差效应
温差标准值
温差模式
温差荷载
温度
温度不动点
温度作用
温度作用效应
温度修正
温度分布
温度分布特性
温度参数识别
温度变化
温度变形
温度变形效应
温度场
温度场监测
温度场观测
温度差异
温度应力
温度应力场
温度应力计算方法
温度影响
温度影响修正
温度徐变应变
温度损伤
温度控制
温度效应
温度敏感性
温度梯度
温度梯度曲线
温度测量
温度特性
温度疲劳
温度监测
温度荷载
温度荷载公式
温度荷载模式
温度裂缝
温度裂缝控制措施
温度观测
温度跨度
温度骤变
温拌改性剂
温控
温控措施
温控施工
温控模型
温控防裂
渭河钢栈桥
港口工程
港口桥梁
港珠澳大桥
港珠澳大桥岛隧工程
游间量设计
湍动能
湍流
湍流度
湍流强度
湍流模型
湍流模拟
湍流特性
湍流积分尺度
湖北省
湘南
湿接缝
湿热环境
湿陷变形
湿陷性黄土
湿陷量
溢出不稳定
溶剂型橡胶沥青
溶洞
溶洞漏浆
溶洞裂隙
溶洞顶板
溶腔
滑冲
滑冲效应
滑动层摩擦系数
滑动摩擦隔震
滑动摩擦隔震支座
滑动支座
滑动效应
滑坡
滑坡推力
滑板式橡胶支座
滑板橡胶支座
滑架
滑模
滑模施工
滑移
滑移位移
滑移分布
滑移基础隔震
滑移小车
滑移挡块
滑移掀起
滑移支架系统
滑移效应
滑移模量
滑移理论
滑移规律分析
滑道梁
滑面搜索
滚动摩擦
滚动轨迹
滚动轴承
滚石
滚石撞击
滚石灾害
滞后张拉
滞后阻尼
滞回性能
滞回曲线
滞回机理
滞回模型
滞回特性
滞回环
滞回耗能
满堂式脚手架
满堂支撑
满堂支架
满堂支架施工
满堂支架法
满堂支架现浇施工
满堂碗扣式支架
满堂钢管支架
满意度
满足结构设计
滤波
滤波频率
滤过Poisson
滨州黄河公铁两用大桥
滨海环境
滨海腐蚀性环境
滩涂地段
滹沱河特大桥
漂卵石
漂浮抗震
漏磁检测
演化算法
演化谱理论
演变
演变功率谱
演绎实质
漩涡
漩涡脱落
漫流区
潜力因素
潮州广济桥
潮流
潮流作用
澜沧江大桥
澧水特大桥
激光
激光三维检测
激光发射器
激励-反馈机制
激励振幅
激励方向
激振力
灌注
灌注工艺
灌注式树脂混合料
灌注式环氧树脂混凝土
灌注料
灌注桩
灌注级配碎石
灌注顺序
灌浆
灌浆处治对策
灌浆帷幕
火损
火温时变分布
火灾
火灾后
火灾场
火灾损伤
火灾模拟
火灾温度场
火灾高温场
火烧温度
火荷载
灯柱
灰关联分析
灰色关联
灰色关联分析
灰色关联度
灰色关联性
灰色关联法
灰色层次分析模型
灰色模糊综合评判
灰色理论
灰色神经网络
灰色系统
灰色系统理论
灰色综合评价法
灰色聚类法
灰色预测
灰靶
灰靶理论
灵敏度
灵敏度分析
灵敏度指标
灵敏度矩阵
灼着温度
炎热气候
点位自动化预测
点焊
点过程模型
烈度
烈度异常
烦恼率
热一结构耦合分析
热传导
热传导分析
热分析
热力学
热工性能
热应力耦合法
热弹塑性
热弹性力学
热扩散系数
热流密度
热点应力
热点应力法
热稳定性
热老化
热脱粘
热膨胀系数
热阻
焊制
焊接
焊接变形
焊接性能
焊接技术
焊接接头
焊接整体节点
焊接构件
焊接残余应力
焊接空心球
焊接细节
焊接结点
焊缝
焊钉
焊钉连接件
焰流
煤矿采空区
煤运通道
照明系统
熔岩空洞
熔透率
熵度量法
熵权
熵理论
熵相容格式
燃气管网
燃烧特性
爆扩抗拔钢桩
爆扩球
爆炸
爆炸作用
爆炸荷载
爆破
爆破分析
爆破参数
爆破拆除
爆破振动监测
爆破施工
爆破施工组织
爆裂
爬坡效应
爬架
爬梁
爬模
爬模工艺
爬模施工
爬移
片石混凝土
牙轮筒钻
牛腿托架
牛腿支架
牛顿迭代法
物元模型
物模试验
物理参数识别
物理意义
物理模型设计
物理模型试验
物联网
牵引
牵引力
牵引方式
牵引系统
牵引预偏系统
牵索挂篮
特列荷载
特大型桥梁
特大悬索桥
特大桥
特大桥隧工程
特大跨度
特大跨度悬索桥
特大跨斜拉桥
特征值
特征值分析
特征值屈曲
特征值问题
特征提取
特征提取/归化
特征方程
特征空间聚类
特征系统实现算法
特性修正系数
特性模型
特殊溶洞
特殊结构
特殊荷载
特殊非线性
特点
特许经营
特重车
特重车交通荷载
特重车交通荷载工况
特重车荷载
特长箱涵
特长隧道
状态分析
状态指标
状态空间
状态等级
状态评估
状态评定
状态预测
状态预测法
狄克曼舒适度评价指标
狗骨式杆
独塔
独塔单索面
独塔单索面斜拉桥
独塔双索面
独塔悬索桥
独塔斜拉桁架桥
独塔斜拉桥
独塔无背索斜拉桥
独塔部分斜拉桥
独墩单支座支承
独柱
独柱墩
独柱墩梁桥
独柱支承
独柱曲线刚构桥
独柱盖梁
独柱索塔
独立矩形齿块锚固区
独立防撞墩
狭窄空间
猫道
猫道安装
猫道拆除
猫道改吊
猫道架设
猫道索
猫道设计
猫道面层
玄武岩纤维增强复合材料
玄武岩纤维布
率定法
环保
环保设计
环向应力
环向拉应力
环向预应力
环境
环境介质
环境作用
环境区划
环境噪音
环境影响
环境影响成本
环境影响评价
环境振动
环境振动波
环境振动测试
环境条件
环境温度
环境激励
环境激励与测试
环境激励振动试验
环境激励法
环境监测
环境系数
环境美
环境脉动试验
环境随机振动试验
环形张拉
环形焊缝
环形立交桥
环形钢筋
环形预应力束
环框
环氧富锌漆
环氧树脂
环氧沥青
环氧沥青混凝土
环氧沥青混凝土铺装
环氧沥青混合料
环氧沥青防水黏结层
环氧沥青黏结层
环氧砂浆
环氧防水抗滑粘结层
环氧黏结剂
环流指数
环翼式桥墩
现代化
现代工程管理
现代木结构
现代木结构桥梁
现代桥梁
现场养护
现场实测
现场施工
现场检测
现场测试
现场监控
现场监测
现场破坏试验
现场空隙率
现场荷载试验
现场试验
现场质量检测仪
现场量测
现存预应力
现浇
现浇支架
现浇施工
现浇梁施工
现浇法
现浇混凝土
现浇箱梁
现浇翼缘板
现浇连续箱梁
现浇连续箱梁施工
现浇钢筋混凝土楼盖
现浇钢筋混凝土箱涵
现浇预应力
现浇预应力箱梁
现浇高箱梁
现状
玻璃纤维增强复合材料
玻璃纤维布
珠江三角洲
球型支座
球头朝向
球形支座
球扁钢纵肋
球铰
球铰接杆式支撑臂
理想线形
理想解法
理论
理论伸长值
理论公式
理论分析
理论厚度
理论及试验
理论推导
理论方法
理论无应力线形
理论易损曲线
理论模型
理论研究
理论算法
理论计算
琼州海峡
琼洲海峡跨海斜拉桥
瑞利分析法
瑞利法
瓯江口
生产单元
生产管理
生命周期
生命周期成本
生命周期环境影响
生命周期评价
生命周期评价理论
生命周期造价
生土农房
生死单元
用户均衡
用户成本
用钢量
用钢量优化
甩筋内模
电伴热
电力系统
电力隧道
电化学原理
电化学实验
电化学除氯
电子限高装置
电弧喷涂铝复合涂层
电测
电测传感
电涡流TMD
电涡流阻尼
电磁力
电磁驱动AMD
电算方法
电算程序设计
电缆槽
电缆线
电通量
电阻
电阻法
电阻率
界限分析
界限波动率
界限用量
界面
界面内力
界面分析
界面剥离
界面剪应力
界面单元
界面受力
界面应力
界面抗剪
界面抗剪承载力
界面滑移
界面特性
界面粘结应力
界面行为
界面裂纹
界面过渡区
界面连接
畸变
畸变中心
畸变效应
畸变翘曲应力
疏浚淤泥固化土
疏港道路
疑难问题
疲劳
疲劳与断裂
疲劳优化设计
疲劳传感器
疲劳分析
疲劳加载
疲劳加载系统
疲劳受力
疲劳变形
疲劳可靠度
疲劳安全监测
疲劳寿命
疲劳寿命评估
疲劳寿命预测
疲劳应力
疲劳应力分析
疲劳应力幅
疲劳应力截止限
疲劳应力等级
疲劳应力衰减模型
疲劳应力谱
疲劳开裂
疲劳开裂试验
疲劳强度
疲劳性能
疲劳扩展门槛值
疲劳抗裂性能
疲劳挠度
疲劳损伤
疲劳损伤分析
[...]
耦合系统
耦合自由振动
耦联分析
耳板
耳板式
联体分幅
联合仿真
联合作用
联合作用体系计算
联合加固
联合反演
联合截面
联合振动
联塔
联塔结构
联立方程
联结系
聚丙烯纤维网
聚丙烯腈纤维
聚合物
聚合物改性沥青
聚合物改性混凝土
聚合物混凝土
聚合物砂浆
聚四氟乙烯
聚氨酯-钢板
聚类
聚类分析
聚能切割
聚酯玻纤布
聚酯纤维
聚酯纤维混凝土
肃北2 号特大桥
肇庆西江特大桥
肋板式
肋梁损伤
肋腋板
肋间横梁
肥皂水
背撑结构
背景响应
背景设计(CSD)
胎模绑扎技术
胶层厚度
胶层粘结厚度
胶接
胶接缝
胶浆
胶粉改性沥青混合料
胶粉改性沥青防水层
胶粘拔出法
能力保护构件计算
能力保护设计
能力曲线
能力谱
能力谱法
能力需求比
能耗
能耗法
能量
能量传导
能量原理
能量原理法
能量变分原理
能量变分法
能量变化率
能量守恒原理
能量损失系数
能量控制
能量法
能量泛函变分原理
能量的传递与反馈
能量耗散
能量衰减因子
能量转换
能量释放率
能量随机分析
脆弱性分析
脆性剥离破坏
脉冲
脉冲参数
脉冲响应函数
脉冲模型
脉冲模拟
脉冲特性
脉动压力
脉动风
脉动风力
脉动风压
脉动风场
脉动风荷载
脉动风谱
脉动风速
脊梁断面
脊骨梁
脚手架
脱架
脱空
脱空角
脱粘
脱轨
脱轨摇摆力
脱轨系数
腐蚀
腐蚀厚度
腐蚀吊索
腐蚀失效
腐蚀形貌
腐蚀机理
腐蚀环境
腐蚀电流密度
腐蚀疲劳
腐蚀监测
腐蚀磨损
腐蚀评定
腐蚀速率
腐蚀防护
腹拱
腹杆
腹板
腹板下弯柬
腹板剪切屈曲
腹板增强
腹板屈曲
腹板开孔
腹板开裂
腹板疲劳寿命评估方法
腹板裂缝
腹板高厚比
膨胀值
膨胀剂
膨胀土
膨胀土地基
膨胀率
膺架
膺架法
膺架法施工
自主创新
自主建设
自冲铆
自力平衡条件
自加劲板
自动化模板系统
自动型全站仪
自动复位装置
自动张拉系统
自动控制
自动气象站
自回复
自复位
自复位桥墩
自密实混凝土
自密实钢管混凝土
自平衡
自平衡加载装置
自平衡条件
自平衡法
自平衡测试法
自平衡荷载试验
自平衡试桩法
自平衡试验
自愈合性
自振
自振基频
自振特性
自振频率
自流平
自激力
自然冲刷
自然激励技术
自然灾害
自然环境
自然频率
自然风
自由场地
自由悬挂节段模型试验
自由振动
自由振动衰减
自由振动试验
自由桩长
自由滑动
自由滑移
自由表面波
自由衰减振动
自由长度
自移式
自立状态
自谱-交叉谱综合最小二乘法
自身抗撞
自辨识
自适应
自适应MC法
自适应修正
自适应分析
自适应控制系统
自适应推倒分析方法
自适应方法
自适应滤波
自适应网格
自适应过程
自重湿陷性黄土
自锁式预应力
自锁灌注桩
自锚式
自锚式吊拉协作体系
自锚式吊拉协作体系桥
自锚式吊拉组合体系桥
自锚式悬索—斜拉协作体系
自锚式悬索—斜拉组合桥
自锚式悬索桥
自锚式拱桥
自锚式斜拉-悬吊协作体系桥
自锚式斜拉-悬索协作体系桥
自锚式混合型悬索桥
舒适度
舒适度指标
舒适度系数
舒适度评价
舒适性
舒适性评估
舟山与大陆联网工程
航测平面图
航迹预测
航道
航道整治工程
航道条件
航道桥
船
船-桥碰撞
船—桥碰撞
船坞
船头等效刚度
船撞
船撞分析
船撞力
船撞桥
船撞桥可靠度
船撞桥墩安全性评价
船撞桥墩最不利位置
船撞桥概率
船桥撞击
船桥碰撞
船舶
船舶定位
船舶撞击
船舶撞击力
船舶碰撞数值仿真
船舶运动轨迹
船艏刚度
船闸
色彩
色彩景观
节段
节段内力
节段制作
节段悬臂支架现浇
节段拼装
节段拼装施工
节段拼装桥墩
节段拼装法
节段拼装膺架
节段接缝
节段施工
节段桥墩
节段梁
节段模型
节段模型测力
节段模型测压
节段模型试验
节段模型风洞试验
节段箱梁
节段足尺模型
节段预制
节段预制拼装
节段预制混凝土梁
节段预制箱梁
节点
节点优化
节点刚域
节点刚度
节点刚性
节点力
节点坐标
节点布置
节点曲率
节点板
节点构造
节点模型试验
节点间距
节能施工
节能除湿机
芜湖长江大桥
芦山地震
花岗岩
花岗岩地区
花瓶墩
花瓶桥墩
苏州斜港大桥
苏拉马都跨海大桥
苏通大桥
苏通长江大桥
苯乙烯
荆岳长江公路大桥
药湖高架
荷栽横向分布
荷载
荷载-位移曲线
荷载-应变
荷载-沉降曲线
荷载-温度耦合作用
荷载-滑移
荷载-滑移关系
荷载-滑移曲线
荷载-滑移规律
荷载~滑移曲线
荷载传递
荷载传递函数
荷载传递机制
荷载传递机理
荷载传递模型
荷载传递法
荷载传递特性
荷载冲击系数
荷载分布
荷载分担比
荷载分解
荷载分配
荷载列模型
荷载历史
荷载取值
荷载响应
荷载布置
荷载影响
荷载影响因子
荷载抗力因子
荷载抗力设计
荷载放大系数
荷载效应
荷载效应比
荷载效应设计值
荷载标准
荷载模型
荷载横向位置
荷载横向分布
荷载横向分布影响线
荷载横向分布系数
荷载温度耦合作用
荷载特性
荷载等级
荷载箱
荷载箱位置
荷载组合
荷载组合效应
荷载规范
荷载计算
荷载识别
荷载试验
荷载试验检测
荷载调查
荷载谱
荷载谱模拟
荷载路径法
荷载重分布
荷载频值谱
莘庄立交
莫桑比克
菱形变截面
菱形挂篮
营业线施工
营业铁路
营运期成本
落客平台
落架顺序
落桥
落梁
落梁模式
落梁防止装置
落石
葵花拱
葵花拱桥
蒙特卡洛抽样
蒙特卡洛方法
蒙特卡洛模拟
蒙特卡洛法
蒙特卡罗
蒙特卡罗原理
蒙特卡罗方法
蒙特卡罗模拟
蒙特卡罗法
蒙特卡罗理论
蒸汽养护
蓄水预压法
蓄盐类
蓬旅跨海通道
薄壁
薄壁U型梁
薄壁墩
薄壁效应
薄壁杆件
薄壁桥台
薄壁槽形梁
薄壁空心墩
薄壁空心高墩
薄壁箱梁
薄壁钢箱
薄壁钢箱梁
薄壁高墩
薄层铺装
薄平板
薄弱层
薄弱截面
薄板理论
虚功原理
虚拟中间变量法
虚拟层合单元
虚拟影响面加载法
虚拟恒载
虚拟样机
虚拟梁法
虚拟气象站法
虚拟激励
虚拟激励法
虚拟现实
虚拟监控
虚拟节点
虚拟试验
虚裂缝扩展
蚀坑
蚁群算法
蛇形
蛇行运动
蜂窝梁
蝴蝶拱桥
蝶形拱式连续梁桥
蝶形拱桥
蝶形箱梁
融资模式
融雪剂
融雪效果
融雪模型
融雪特性
融雪策略
螺旋箍筋
螺旋线
螺旋肋钢丝
螺旋角
螺旋钢管
螺杆附加力
螺栓
螺栓连接
螺栓连接结构
螺洲大桥
螺纹分析
螺纹连接
蠕变
蠕变速率
行人保护
行人动力学模型
行人步行参数
行人激励
行人舒适度
行人附加质量
行人附加阻尼
行波
行波作用
行波效应
行波激励
行车临界风速
行车安全
行车安全性
行车安全阈值
行车振动
行车舒适性
行车颠簸
行驶速度
补偿收缩混凝土
补强措施
表决系统
表层嵌贴CFRP-混凝土界面
表层嵌贴CFRP板条
表面因子
表面处理
表面弯沉
表面性质
表面测压
表面温度
表面粗糙度
表面裂纹
表面裂缝
衰减关系
衰减成像
衰减振动试验
衰减模型
衰变模型
袖阀管注浆法
被动控制
裂纹
裂纹RC梁
裂纹尖端张开位移
裂纹尖端张开位移(CTOD)
裂纹影响因子
裂纹扩展
裂纹扩展寿命
裂纹损伤
裂纹梁
裂缝
裂缝修补
裂缝分类
裂缝宽度
裂缝宽度限值
裂缝扩展
裂缝指标
裂缝控制
裂缝提取
裂缝检测
裂缝特征
裂缝监测
裂缝统计特征
裂缝间距
裂缝预测
裂隙参数
装置研究
装船运输
装配化施工
装配式
装配式PC板桥
装配式RC板桥
装配式主梁
装配式公路钢桥
装配式斜交空心板桥
装配式施工
装配式板桥
装配式板梁桥
装配式桥
装配式桥墩
装配式梁桥
装配式空心板
装配式空心板桥
装配式空心板梁桥
装配式管型通道
装配式组合桥面体系
装配式结构
装配式钢桁桥
装配式钢桥
装配式钢筋混凝土管形通道
装配式钢管支架
装配式预制通涵
装配结构
装饰性结构
装饰美
裸光纤光栅
裸塔
裸岩
裸拱
裸拱线形
裸梁
褥垫层厚度
西北地区
西南山区高速公路
西堠门大桥
西宝客专
西宝客运专线
西江
西藏高烈度区
西部河谷
覆冰
覆冰拉索
覆土波纹钢板拱桥
覆土波纹钢板桥涵
观测
规划区、秀涂互通方案优化
规划理念
规则性
规则桥梁
规则连续梁桥
规则钢筋混凝土桥梁
规律分析
规范
规范公式
规范反应谱
规范方法
规范校准
规范比较
规范法
规范荷载
规范设计值
规范谱
视波速
视觉效果
视频投影法
角度交会
角点
角焊缝
角色动画
角钢抗剪连接件
角隅矩形齿块锚固区
解决措施
解决方案
解决方法
解决策略
解析公式
解析模态分解法
解析法
解析索单元
解析表达式
解析解
解析计算方法
解联拼接
解联方案
解释结构模型
解释结构模型(ISM)
解锁力
计算
计算公式
计算分析
计算应力
计算效率和精度
计算方法
计算时段
计算期
计算机仿真
计算机同步控制系统
计算机模拟
计算机视觉
计算机识别
计算机辅助设计
计算模型
计算模式不确定性
计算流体力学
计算流体动力学
计算流量
计算界限
计算系数
计算结果
计算长度
计算长度系数
认定标准
记忆效应
设备检查和维护
设备残值
设缝
设置
设计
设计与制作
设计与应用
设计与施工
设计与施工偏差
设计与校验
设计与研究
设计与验算
设计使用期
设计值
设计偏差
设计公式
设计关键点
设计冲击谱
设计准则
设计分析
设计原则
设计参数
设计反应谱
设计变更
设计和施工要点
设计地震动
设计基准风速
设计复核
设计建议
设计思想
设计承载力
设计指标
设计方案
设计方法
设计施工
设计标准
设计注意事项
设计活载
设计流程
设计流量
设计流量公式
设计热负荷
设计特点
设计理念
设计理论
设计研究
设计策略
设计绘图
设计荷载
设计要点
设计规范
设计计算
设计计算方法
设计试验
设计谱
设计资料
设计速度
设计验算
设计高程
设防
设防措施
设防标准
设防水位
评价
评价指标
评价指标体系
评价权重
评价标准
评价模型
评估
评估公式
评估周期
评估基准期
评估技术
评估指标体系
评估方法
评估标准
评估模型
评估系统
评估载荷
评判
评判模型
评定
评定方法
评定标准
评定等级
识别
识别方法
识别精度
诊断
试
试件
试拼装
试探位移函数
试桩
试设计
试验
试验与有限元分析
试验与理论
试验与理论分析
试验与评价
试验仪
试验分析
试验参数
试验及有限元
试验方案
试验方法
试验检测
试验模型
试验模态振型
试验段
试验研究
试验设计
试验评估
试验验证
误差
误差传播
误差估计
误差修正
误差分析
误差控制
误差调整
调位
调坡
调头
调平层
调弧钢模
调整
调整措施
调整方案
调整频率
调查
调液阻尼器
调索
调索公式
调索顺序
调谐液体阻尼器
调谐质量减振器
调谐质量阻尼器
调谐质量阻尼器(TMD)
调谐质量阻尼器参数优化
调频EMD
调频质量阻尼器
谐响应分析
谐振动
谐波合成法
谱分析
谱密度函数
谱表示法
贝叶斯估计
贝叶斯分析
贝叶斯动态线性模型
贝叶斯更新
贝叶斯理论
贝叶斯网络
贝宁
贝雷反力梁
贝雷支架
贝雷架
贝雷架架设法
贝雷桁架
贝雷梁
贝雷梁支架
贝雷梁桥
贝雷设计法参数
负弯矩
负弯矩加固
负弯矩区
负弯矩区受力试验
负弯矩区桥面板
负弯矩区裂缝控制
负弯矩压浆
负摩擦力
负摩阻力
负角度二次竖转
负载测试
负选择算法
货物列车
货物运输
质最检验评定
质量
质量-弹簧体系
质量分析
质量参与系数
质量弹簧模型
质量归一化
质量损失
质量控制
质量控制点
质量标准
质量检验评定
质量监督
质量监管
质量管理
质量管理体系
质量缺陷
质量调谐阻尼器
质量问题
质量阻尼器
贴近度
费率厘定
费用
费用模型
资源配置
资金来源
赔偿金
赣东大桥
赤石特大桥
赫兹接触理论
赫章特大桥
走行性
起升机构
起升高度
起因
起振风速
起泡率
起滑粘结强度
起爆网路
起重机
起重机械
起重船
起顶
超低高度简支 T梁
超前支护
超前钻探
超千米级
超千米级斜拉桥
超压排气系统
超原胞方法
超固结土
超声检测
超声法
超声波
超声波冲击焊接应力消除
超声波检测
超声波检测试验
超声波透射法
超声相控阵技术
超声脉冲
超声脉冲数值模拟
超大“∞”形地连墙
超大内横梁和分离式双箱结构
超大吨位
超大型
超大型沉井
超大型箱梁
超大型薄壁
超大型陆上沉井基础
超大型预制桥墩
超大直径
超大规模沉井
超大跨
超大跨度
超大跨度悬索桥
超大跨度斜拉桥
超大跨度桥梁
超大跨径
超大跨径悬索桥
超大跨径梁桥
超大跨斜拉桥
超孔隙水压力
超宽
超宽主梁
超宽型桥梁
超宽大面积
超宽桥
超宽混凝土主梁
超宽箱梁
超岩溶发育
超挖深度
超斜铰接板
超深塑料排水板
超球面一类支持向量机
超矩阵
超级决策
超薄混凝土
超谐共振
超越损伤概率
超越方程
超越概率
超车视距
超载
超载偏载作用
超载系数
超重
超重车辆
超长
超长单桩
超长大跨
超长拉索
超长斜拉索
超长桩
超长灌注桩
超长群桩
超长联
超长联连续梁
超长钢板桩
超长钻孔灌注桩
超长预应力束
超限情况分析
超限桥梁
超限车载
超静孔隙水压
超静定
超静定体系
超静定结构
超高
超高分子量聚乙烯
超高压线路
超高变化率
超高墩
超高性能混凝土
超高性能混凝土(UHPC)
超高桥塔
超高模板
超高渐变段
超高的设计
超高车辆
超高韧性水泥基复合材料/混凝土复合梁
超高韧性混凝土
越江大桥
趋势因子
足尺模型
足尺模型试验
足尺节段模型
足尺试验
跑车试验
距离测量
跨中下挠
跨中下绕
跨中垂度
跨中挠度
跨中挠度过大
跨中比
跨向不完全相关性
跨坐式单轨交通
跨堤布置
跨尺度
跨度
跨度范围
跨座式
跨座式单轨
跨座式单轨交通
跨座式轻轨车
跨径
跨径比
跨径组合
跨断层
跨断层交角
跨既有线
跨既有高速公路
跨河桥梁
跨河高程传递
跨海
跨海大桥
跨海工程
跨海桥梁
跨海通道项目
跨线
跨线天桥
跨线斜拉桥
跨线桥
跨线桥梁
跨缆吊机
跨越
跨越方案
跨越既有线
跨越暗河
跨越结构
跨距
跨路口方案
跨铁路
跨铁路桥
跨高比
路基
路基加固
路基工程
路基施工
路基沉降
路基稠度
路基路面施工
路堤荷载
路径选择
路桥
路桥(涵)过渡段
路桥过渡段
路用性能
路面
路面不平度
路面损伤
路面稳定
路面粗糙度
跳跃屈曲
跳车试验
蹲伏激励荷载
车-桥(线)耦合
车-桥-阻尼器系统
车-桥共振
车-桥墩碰撞
车-桥振动
车-桥系统
车-桥系统动力性能
车-桥耦合
车-桥耦合单元
车-桥耦合振动
车-线-桥耦合
车-线-桥耦合振动
车—桥墩碰撞
车—桥系统
车—桥耦合单元
车—桥耦合振动
车—线—桥
车列荷载
车头间距
车桥共振
车桥动力分析
车桥振动
车桥相互作用
车桥碰撞
车桥系统
车桥耦合
车桥耦合共振
车桥耦合动力仿真
车桥耦合单元
车桥耦合振动
车桥耦合振动模型
车桥耦合振动系统
车桥耦合相互作用
车桥耦合系统
车流
车流分布
车流及荷载特性
车流模拟
车激响应
车站
车线桥
车线桥耦合
车致振动
车船
车轮瞬时脱离
车轮荷载
车轴检测
车轴识别
车辆
车辆-桥梁耦合
车辆-轨道梁耦合振动
车辆—轨道—桥梁系统
车辆事故
车辆偏载
车辆冲击
车辆冲撞作用
车辆动力学
车辆动态测重系统
车辆参数
车辆安全性
车辆布置
车辆模型
车辆荷载
车辆荷载效应
车辆荷载标准值
车辆荷载模型
车辆荷载特性
车辆荷载识别
车辆荷载调查
车辆荷载谱
车辆调查
车辆走行性
车辆超载
车辆轴重、轴距统计归纳方法
车辆运动
车辆速度
车辆间距
车辙评估模型
车速
车速阈值
车道荷载
车队荷载
轧辊
轨下刚度
轨索
轨索滑移法
轨索移梁工艺
轨索移梁系统
轨道
轨道-桥梁耦合单元
轨道不平顺
轨道专用
轨道交通
轨道交通测量
轨道扣件
轨道斜拉桥
轨道桥梁
轨道梁
轨道横梁
轨道稳定性
轨道约束
轨道结构形式
轨顶风道
转体
转体斜拉桥
转体施工
转体施工法
转体架设
转体桥
转体桥现浇梁支架
转体法
转体法架桥
转体翻身
转体设计
转体过程
转体铰
转动刚体模型
转动力矩
转动块
转动惯量
转动机构
转动能力
转动装置
转动铰
转化
转向块
转向装置
转弯半径
转换
转换矩阵
转换粱
转盘车
转角位移方程
转速
轮扣式高支模架
轮胎式搬运机
轮胎式荷载
轮轨关系
轮轨垂向力
轮轨式纵移台车
轮轨接触
轮轨接触单元
轮轨接触模型
轮轨相互作用
轮轨蠕滑理论
轮轴距
轮轴重
轮载
轮载横向分布
轮迹横向分布
轮重减载率
软件
软件Abaqus
软件实现
软件开发
软件模拟
软件系统
软化桁架模型
软土
软土地区
软土地基
软土深基坑
软土路基处理
软基
软基处理
软岩
软弱围岩
软弱地质
软弱层划分
软弱砂层
软钢剪力连杆
软颤振
轴力
轴力动力放大系数
轴力平衡
轴力自平衡
轴力预测
轴压
轴压比
轴压比影响系数
轴压短柱
轴压荷载
轴压试验
轴向刚度
轴向力
轴向受压
轴向变形
轴向被动控制
轴心受压
轴心受压构件
轴心受压试验
轴承
轴线
轴线偏差
轴载换算
轴重
轴重频值谱
轻型井点降水
轻型化
轻型高速船用齿轮箱
轻质混凝土
轻质混凝土铺装层
轻质钢桥
轻质集料
轻轨
轻轨列车荷载
轻钢结构
轻钢结构柔性棚洞
轻骨料混凝土
轻骨料混凝土 陶粒
载荷共享
载荷横向变位
载荷试验
载荷谱
载重比
辅助墩
辅助墩耗能
辅助索
辅助钢梁加固
辐射波浪理论
输入地震动
输入界面
输入能量
输入角
输水隧洞
输油管道
输泄水塔
输煤栈桥
输煤通廊
输电塔
边中跨比
边主梁
边坡
边坡场地
边坡处理
边坡抗力
边坡效应
边坡桩基
边坡比
边坡滑移
边坡稳定
边坡稳定性
边梁与内梁刚度不等
边界元-有限元法
边界元方法
边界元模型
边界效应模型
边界条件
边界概化
边界约束
边界转动弹簧
边箱形截面
边箱梁
边纵梁
边线标定
边缘检测
边角后方交会
边跨
边跨变形
边跨合拢
边跨合龙方案
边跨和中跨
边跨效应
边载
边锚失效
达朗贝尔原理
过境过程
过度下挠
过度段
过往车辆
过桥水管
过江牵引
过渡墩
过渡段
过滤器脉冲响应法
过焊孔
过程控制
过载
过隧
过隧道运梁车
运动学效应
运动方程
运动水线
运动测量
运动荷载
运动轨迹
运架一体机
运架设备
运梁台车
运梁车
运营
运营性能
运营条件
运营监测
运营管理
运营车辆荷载限值
运营阶段
运营风险评估
运行安全
运行模态分析
运行模态识别
运行轨迹
运输
运送荷载
近似公式
近似方法
近似法
近似积分法
近似解析式
近似计算
近似频率公式
近似频率方程
近区爆破
近场
近场地震
近场爆炸荷载
近场竖向地震
近场长周期
近接施工
近断层地震
近断层地震动
近断层地面运动
近海深水桥梁
近距离施工
近震
进展
进度
远场地震
远程监控
远程监测
连体结构
连拱作用
连拱桥
连接
连接件
连接刚度
连接器
连接形式
连接方式
连接构造
连接系
连梁
连梁装置
连续-刚构组合桥
连续Markov过程
连续T梁
连续U梁
连续体系桥梁
连续倒塌
连续刚构
连续刚构体系
连续刚构拱
连续刚构拱组合桥
连续刚构桥
连续刚构桥梁
连续刚构梁
连续刚构箱梁桥
连续刚架拱桥
连续刚架桥
连续化分析方法
连续化模型
连续变温
连续墙
连续墩隔震
连续小波变换
连续弯桥
连续弯梁桥
连续弹性拉索模型
连续曲梁
连续曲线宽箱梁
连续曲线钢箱梁桥
连续桁梁桥
连续桥梁
连续桥面
连续梁
连续梁-框架墩
连续梁—刚构组合体系
连续梁墩
连续梁托架
连续梁拱
连续梁拱桥
连续梁拱组合体系桥
连续梁拱组合桥
连续梁桥
连续梁相接
连续槽型梁
连续槽形梁
连续模型
连续浇注混凝土
连续箱梁
连续箱梁桥
连续粱
连续纵梁
连续组合箱梁
连续轨道梁
连续钢—混组合梁
连续钢构
连续钢桁拱桥
连续钢桁梁
连续钢桁系杆拱桥
连续钢箱梁
连续钢箱梁桥
连跨数
连通可靠度
连通性
连通管
连通管光电挠度系统
迭代Tikhonov正则化
迭代优化
迭代加速法
迭代多模态反应谱法
迭代学习控制
迭代求解
迭代法
迭代算法
迭代计算
追风效应
退化
退化机理
退化模型
退化钢丝
适应度函数
适应性
适应条件
适用公式
适用性
适用跨径
逆作式
逆作法
逆可靠度
逆施工顺序
逆模型
逆温层
逆转现象
选型
选型优化
选择
透水模板布
逐步回归
逐步扩大子结构法
逐步积分
逐步积分法
逐级张拉
逐跨施工
递归
递归图
递归量化分析
递推算法
递推随机有限元方法
通用参考图
通用图
通用货车
通病
通航
通航净宽
通航净空
通航安全
通航宽度
通航影响
通航条件
通航标准
通航河道
通航渡槽
通航要求
通过桥梁
通长束
通风
速度反馈
速度响应
速度脉冲
速度脉冲效应
速度识别
速度锁定器
速度锁定支座
速度锁定装置
造价
造价公式
造价预测
造型
造型美
造型设计
造峰时间
造桥机
造桥造诣
遍历搜索
道岔
道岔区
道岔梁
道岔连续梁
道床板
道桥工程
道砟桥面
道路
道路下穿
道路交通噪声和振动
道路工程
道路拓宽
道路桥梁
道路桥梁施工
道路畅通
道路病害
道路规射
遗传算法
邻跨刚度比
邻近桩基
邻近铁路
郁江大桥
郑州黄河公铁两用桥
郧十汉江大桥
部分地锚
部分地锚式斜拉桥
部分地锚斜拉桥
部分填充混凝土圆形钢桥墩
部分斜拉
部分斜拉桥
部分相干效应
部分预应力
部颁T梁桥
都市农业企业
都市村庄
鄂东
鄂东大桥
鄂东长江公路大桥
鄂东长江大桥
酉水大桥
配分函数
配切
配切—顶推合龙技术
配制
配合公差
配合比
配合比设计
配套
配斜筋梁
配筋
配筋混凝土
配筋混凝土结构
配筋率
配筋计算
配筋设计
配箍率
配箍量影响系数
配重
配重加载
配重方案
酸腐蚀
酸酐
酸雾试验
采空区
释放处理
释能法
重力刚度法
重力坝
重力式桥墩
重力式锚碇
重型击实试验
重型车辆
重复使用
重复荷载
重庆
重庆两江大桥
重庆交科院
重心高度
重构因子
重标极差
重点桥渡
重现期
重要性
重要性评价
重要手段
重车
重载
重载交通
重载列车
重载汽车
重载货车
重载车
重载车辆
重载运输
重载造桥机
重载铁路
重载铁路桥梁
重频模态
量化
量化分析
量化影响
量化识别
量子粒子群优化算法
量子粒子群算法
金属阻尼器
金属预应力孔道
金属预应力管道
金门大桥
鉴定
钇
针型钢塔
钓鱼法
钝体
钝体结构
钝角
钢
钢 - 混凝土组合梁
钢 -混凝土组合梁
钢-混凝土
钢-混凝土接头
钢-混凝土曲线组合梁
钢-混凝土混合梁
钢-混凝土组合
钢-混凝土组合拱桥
钢-混凝土组合构件
钢-混凝土组合桁架
钢-混凝土组合桁架梁
钢-混凝土组合桁架节点
钢-混凝土组合桁梁
钢-混凝土组合桥
钢-混凝土组合桥面板
钢-混凝土组合梁
钢-混凝土组合梁斜拉桥
钢-混凝土组合梁桥
钢-混凝土组合简支梁桥
钢-混凝土组合箱梁
钢-混凝土组合结构
钢-混凝土组合连续箱梁
钢-混凝土结合梁
钢-混凝土结合段
钢-混凝土结合部
钢-混凝土过渡段
钢-混叠合梁
钢-混混合梁
钢-混组合桁架桥
钢-混组合桥塔
钢-混组合桥梁
钢-混组合桥面板
钢-混组合桥面系
钢-混组合梁
钢-混组合结构
钢-混组合结构桥梁
钢-混组合连续梁
钢-混结合梁
钢-混结合段
钢-混结合粱
钢-混锚板
钢-砼组合曲线梁桥
钢-预应力混凝土混合连续箱梁桥
钢-高性能混凝土
钢/混凝土相互作用区
钢—混凝土
钢—混凝土组合
钢—混凝土组合结构
钢—混凝土结合梁
钢—混凝土结合段
钢—混叠合梁桥
钢—混组合连续梁
钢—混结合段
钢—混结构
钢丝
钢丝破断
钢丝索
钢丝绳
钢丝绳(钢绞线)网片
钢中塔
钢主梁
钢便桥
钢内导管
钢制人行天桥
钢加劲梁
钢吊箱
钢围堰
钢塔
钢塔大节段
钢塔斜拉桥
钢塔柱
钢塔混凝土结合段
钢塔节段
钢壳沉井
钢套管
钢套箱
钢套箱围堰
钢套箱数值模拟
钢套箱防撞
钢导梁
钢导梁线形
钢平台
钢平台拌和站
钢悬臂梁
钢扁担梁法
钢护筒
钢护筒群
钢护筒跟进
钢抱箍
钢拱塔
钢拱支架
钢拱架
钢拱桥
钢拱桥吊杆
钢拱梁
钢拱组合梁桥
钢支座
钢支撑
钢斜拉桥
钢材
钢材锈蚀
钢板
钢板-混凝土
钢板-混凝土组合加固
钢板-混凝土组合桥面板
钢板剪力墙
钢板加固
钢板加固锈蚀梁
钢板式吊杆
钢板桥涵
钢板桩
钢板桩围堰
钢板桩支护
钢板梁
钢板梁桥
钢板箍
钢板锈蚀率
钢构
钢架
钢栈桥
钢格室
钢格构柱
钢格构柱连续刚构体系
钢桁加劲梁
钢桁加劲梁悬索桥
钢桁拱
钢桁拱桥
钢桁斜拉桥
钢桁架
钢桁架底模
钢桁架悬索桥
钢桁架拱桥
钢桁架支撑体系
钢桁架桥
钢桁架桥梁
钢桁架梁
钢桁架梁桥
钢桁桥
钢桁梁
钢桁梁悬索桥
钢桁梁斜拉桥
钢桁梁施工
钢桁梁桥
钢桁粱
钢桁系杆拱桥
钢桁腹
钢桁腹组合结构
钢桁腹结构
钢桁腹预应力混凝土组合梁桥
钢框架
钢框架支撑体系
钢桥
钢桥塔
钢桥墩
钢桥工程
钢桥桥面铺装
钢桥疲劳
钢桥疲劳试验
钢桥节点
钢桥面
钢桥面板
钢桥面铺装
钢桥面铺装体系
钢桥面铺装层
钢梁
钢梁架设
钢梁桥
钢梁浮拖施工技术
钢梁焊接
钢槽梁
钢模板
钢横梁框架墩
钢横隔板
钢沉井
钢沉井定位
钢沉井着床
钢波纹
钢波纹板
钢波纹板拱桥
钢波纹管
钢波纹管涵
钢波纹管涵洞
钢浮箱
钢混凝土结合梁
钢混叠合梁
钢混叠合梁斜拉桥
钢混桥梁面板
钢混组合桥面板
钢混组合锚固区
钢混组合锚固结构
钢混结合
钢混结合主梁
钢混结合桥
钢混结合梁
钢混结合段
钢混结合部位
钢混结果
钢渣混凝土
钢牛腿
钢盖梁
钢砼组合
钢筋
钢筋保护层
钢筋对接
钢筋屈服强度
钢筋应力
钢筋应力释放
钢筋强度
钢筋拉应力
钢筋拉应变
钢筋混凝土
钢筋混凝土T型梁
钢筋混凝土T形梁
钢筋混凝土T梁
钢筋混凝土主拱圈
钢筋混凝土偏压构件
钢筋混凝土加固
钢筋混凝土圆墩
钢筋混凝土圆形墩柱
钢筋混凝土圆形构件
钢筋混凝土圆柱
钢筋混凝土墩柱
钢筋混凝土安全
钢筋混凝土拱
钢筋混凝土拱圈
钢筋混凝土拱桥
钢筋混凝土拱肋
钢筋混凝土挡块
钢筋混凝土旧桥
钢筋混凝土板
钢筋混凝土板梁
钢筋混凝土构件
钢筋混凝土柱
钢筋混凝土框架
钢筋混凝土桥
钢筋混凝土桥墩
钢筋混凝土桥梁
钢筋混凝土桥面板
钢筋混凝土梁
钢筋混凝土梁桥
钢筋混凝土沉井
钢筋混凝土矩形空心墩
钢筋混凝土空心板梁
钢筋混凝土空心桥墩
钢筋混凝土简支T形梁桥
钢筋混凝土简支T桥梁
钢筋混凝土简支梁桥
钢筋混凝土箱型墩
钢筋混凝土箱型拱桥
钢筋混凝土箱型桥墩
钢筋混凝土箱梁
钢筋混凝土箱梁桥
钢筋混凝土箱涵
钢筋混凝土系杆拱桥
钢筋混凝土结构
钢筋混凝土结构,连续梁
钢筋混凝土连续梁
钢筋混凝土高墩
钢筋笼
钢筋笼填石墩
钢筋腐蚀
钢筋锈胀开裂寿命
钢筋锈蚀
钢筋锈蚀时间模型
钢筋锈蚀模型
钢筋锈蚀率
钢筋间距
钢筋防锈策略
钢筋非均匀锈蚀
钢管
钢管再生混凝土
钢管初应力
钢管复合桩
钢管套
钢管拱
钢管拱桥
钢管拱肋
钢管支架
钢管支架法
钢管桁架
钢管桩
钢管桩平台
钢管桩插打
钢管桩支架
钢管桩施工
钢管沉桩
钢管活性粉末混凝土
钢管混凝土
钢管混凝土劲性骨架拱桥
钢管混凝土单圆管拱桥
钢管混凝土叠合柱
钢管混凝土拱
钢管混凝土拱桥
钢管混凝土拱结构
钢管混凝土拱肋
钢管混凝土支架
钢管混凝土格构墩
钢管混凝土格构柱
钢管混凝土桁架拱
钢管混凝土桁架拱桥
钢管混凝土桥
钢管混凝土桥墩
钢管混凝土桩
钢管混凝土空间组合桁架
钢管混凝土系杆拱桥
钢管混凝土组合墩
钢管混凝土组合桁式梁
钢管混凝土结构
钢管混凝土统一理论
钢管混凝土腹杆-PC组合箱梁桥
钢管立柱
钢管膨胀混凝土柱
钢管轻集料混凝土
钢管钻环切法
钢管骨架
钢箱
钢箱-混凝土
钢箱加固法
钢箱叠合拱
钢箱叠合拱桥
钢箱叠拱
钢箱叠拱桥
钢箱拱
钢箱拱桥
钢箱拱结构
钢箱拱肋
钢箱提篮拱桥
钢箱桁组合断面
钢箱梁
钢箱梁制造尺寸
钢箱梁吊装
钢箱梁开启桥
钢箱梁式架桥机
钢箱梁悬索桥
钢箱梁斜拉桥
钢箱梁施工
钢箱梁架设
钢箱梁桥
钢箱梁正交异性桥面板
钢箱梁焊接应力
钢箱混凝土
钢箱混合梁
钢箱粱
钢箱系杆拱桥
钢箱组合梁
钢箱连续梁
钢箱长度
钢索
钢索塔
钢纤维
钢纤维体积率
钢纤维增强聚合物改性高强混凝土
钢纤维混凝土
钢纤维聚合物结构混凝土
钢纤维聚合物高强混凝土
钢结构
钢结构加层
钢结构拱桥
钢结构支架
钢结构腐蚀
钢绞线
钢绞线斜拉索
钢绞线斜拉索锚具
钢绞线索
钢绞线网加固柱
钢绞线网片
钢缆索
钢腹杆
钢腹板
钢轨应力
钢连续梁桥
钢锚板式钢-混组合索塔锚固体系
钢锚梁
钢锚梁-钢牛腿组合结构
钢锚箱
钢锚箱连接
钢靴
钢骨混凝土
钱塘江大桥
钻(挖)孔灌注桩
钻前预爆
钻头
钻孔取芯
钻孔嵌岩桩基
钻孔平台
钻孔摩擦桩
钻孔桩
钻孔灌注桩
钻孔灌注桩基础
钻孔爆破
钻孔调查
钻机
钻爆法
钻芯取样
钻芯法
钻进深度
铁路
铁路D型便梁
铁路便桥
铁路公路两用桥
铁路减隔震桥梁
铁路减震桥梁
铁路大桥
铁路客专
铁路客站
铁路客运专线
铁路工程
铁路平交道口
铁路悬索桥
铁路拱桥
铁路挑臂
铁路斜拉桥
铁路曲线粱桥
铁路栈桥
铁路桥
铁路桥,斜拉桥
铁路桥基
铁路桥墩
铁路桥梁
铁路桥梁结构
铁路桥涵
铁路桩基承台
铁路混凝土梁桥
铁路混合梁
铁路箱梁
铁路规范
铁路轮渡
铁路连续梁桥
铁路选线
铁路钢桁梁
铁路钢桥
铁路钢箱桥面
铁路钢箱梁
铁路隧道
铁道工程
铁道车辆
铅挤压阻尼器
铅芯支座
铅芯橡胶支座
铅芯橡胶支座(LRB)
铅芯橡胶隔震支座
铅芯隔震橡胶支座
铅销橡胶支座
铆接钢桥
铜基摩擦面
铜陵大桥
铝合金
铝合金桥梁
铝合金桥面板
铰
铰座
铰式锚
铰接
铰接托架
铰接板(梁)法
铰接板桥
铰接板梁桥
铰接板梁法
铰接板法
铰接板理论
铰接构造
铰接等代法
铰接边界条件
铰缝
铰缝损伤
铰缝注胶
铰缝深度
铰缝连接刚度
铰轴式钢支座
铰轴窜出
铺装
铺装层
铺装层厚度
铺装层弹性模量
铺装层扩散效应
铺装技术
铺装方案
铺装结构
铺装调整
铺设方案
销孔
销接节点
销栓
销栓作用
销轴
锁定
锁定力
锁定现象
锁定结构
锁定装置
锁死销
锁死间隙
锈胀开裂
锈蚀
锈蚀RC梁
锈蚀光圆钢筋
锈蚀分级
锈蚀判断
锈蚀形态
锈蚀梁
锈蚀模式
锈蚀率
锈蚀疲劳
锈蚀监测
锈蚀钢丝
锈蚀钢筋
锈蚀钢筋混凝土梁
锌-铝合金镀层钢丝
错孔挠度
锚
锚下劈裂
锚下有效预应力
锚下构造
锚具
锚同性能
锚后牵拉
锚固
锚固体系
锚固力
锚固区
锚固性能
锚固损失
锚固效率系数
锚固方案
锚固机理
锚固横梁
锚固段
锚固端填充物
锚固端摩阻损失率
锚固系统
锚固结构
锚垫板
锚塞体
锚墩定位
锚头模型试验
锚定力
锚室
锚拉板
锚杆静压
锚栓
锚梁
锚点坐标
锚碇
锚碇-锚跨单元
锚碇基坑
锚碇沉井
锚碇系统
锚箱
锚箱定位
锚箱式锚固结构
锚索
锚索测力计
锚索锚固力
锚跨
锚跨单元
锚跨张力
锚跨索股
锚跨索股张力
锤击应力
锤击激励
锥形支座
锥形非固结隔震支座
锥形面空间拉压杆模型
锦屏二级水电站
锦承线上行线K1+199框构桥改造施工
镀锌钢丝
镀锌高强钢丝
长周期地震
长周期地震动
长周期桥梁
长圆孔高强螺栓
长大桥梁
长大连续梁桥
长大隧道
长寿命桥面铺装
长度
长度优化
长度修正
长度控制
长度效应
长度比值
长径比
长悬臂
长期下挠
长期健康监测系统
长期加载
长期变形
长期变形性能
长期性能
长期挠度
长期监测
长期荷载
长期预应力损失
长柱
长标距
长江上游
长江大桥
长江深泓区
长短组合桩
长线法
长线法预拼
长细比
长联
长联低墩连续刚构桥
长联多跨悬浇连续梁
长联大跨
长联大跨连续梁
长联空心板
长臂挖掘机
长螺旋钻机
长跨桥
长重索吊装
长重索牵引
长重索防扭
门型桥塔
门式墩
门式墩柱
门式起重机
门机荷载
门槛值
门洞
闭口断面主梁
闭口箱梁
闭口箱梁断面
闭口肋
闭口薄壁构件
闭环运动控制
问题
问题与思考
问题及对策
问题浅析
间接平差
间接拉伸试验
间接边界元法
间断频率
间距
间隙
间隙有限元
闽江特大桥
阈值
阈值分割
阈值模型
防冲指标
防冻
防屈曲支撑
防屈曲支撑(BRB)
防崩钢筋
防护
防护体高度
防护层
防护措施
防护桩
防护涂料
防护系统
防护线路
防护网
防护装置
防护设计
防排水
防控措施
防撞
防撞墙
防撞墩
防撞性能
防撞措施
防撞浮箱
防撞消能器
防撞系统
防撞装置
防撞设施
防撞设计
防撞钢套箱
防水
防水体系
防水层
防水施工
防水板
防水涂膜
防水粘接层
防水粘结层
防水粘结材料
防水黏结层
防水黏结材料
防治
防治分析
防治对策
防治措施
防治策略
防洪
防洪影响
防洪评价
防渗墙
防火措施
防灾减灾
防电措施
防碰
防腐
防腐保护
防腐性能
防腐技术
防腐材料
防腐油脂
防腐涂层
防腐涂装
防腐蚀
防腐设计
防范对策
防范建议
防范措施
防落梁
防落梁拉杆
防落梁措施
防落梁板式橡胶支座
防落梁装置
防落装置
防裂
防裂措施
防裂设计
防震减灾
防震效果
防风
防风屏障
防风效果
防风网
阳极梯系统
阳逻长江大桥
阵风因子
阵风影响系数
阶梯状断口
阶梯谱
阶段损伤
阶段施工
阶段模型
阶线法
阶跃函数
阻力相似
阻力系数
阻塞率
阻尼
阻尼修正系数
阻尼力
阻尼参数
阻尼参数设计
阻尼器
阻尼器减振
阻尼器系数
阻尼性能试验
阻尼指数α
阻尼效应
阻尼比
阻尼水平
阻尼特性
阻尼系数
阻尼系数C
阻尼约束体系
阻尼耗能
阻尼装置
阻尼调整系数
阻水比
阿富汗
阿海水电站
陀螺系统
附加内力
附加压重
附加应力
附加应力系数
附加弯矩
附加拱式体系
附加挠度
附加攻角
附加曲率
附加水平力
附加角钢板节点
附加质量
附加质量法
附加轴力
附加轴向位移
附加风攻角
陈家贡特大桥
降噪
降排水下沉
降排水施工
降水
降阶法
限位
限位(有间隙连接)
限位器
限位器刚度
限位挡块
限位索
限位结构
限位装置
限值
限值标准
限制位移
限制带宽经验模态分解(BREMD)
限时合龙
限重标志
陡坡
陡坡效应
陡坡桩柱
除冰性能
除噪
除湿
除湿系统
陶瓷文物
随机
随机-模糊均值
随机不平顺
随机介质理论
随机偏心距
随机减量
随机减量技术(RDT)
随机分析
随机力学参数
随机变异
随机变形
随机变量
随机变量系数
随机响应
随机响应面法
随机地震分析
随机地震动
随机地震响应
随机地震激励
随机子空间
随机子空间方法
随机子空间法
随机子空间识别
随机子空间识别(SSI)
随机子空间识别方法
随机性
随机性行人步行力模型
随机振动
随机振动理论
随机有限元
随机有限元方法
随机有限元法
随机模拟
随机模糊
随机模糊统计
随机气动干扰
随机荷载
随机车流
随机车流-桥梁分析系统
随机车流-桥梁系统
随机车流类型过程
随机载荷谱
随机过程
随机静力分析
随机骨料
随转坐标法
隐含可靠指标
隐患
隐患治理
隐蔽焊缝
隔振支座
隔热层
隔热技术
隔离桩
隔震
隔震体系
隔震层
隔震性能
隔震措施
隔震支座
隔震支座刚度
隔震效果
隔震桥梁
隔震梁桥
隔震结构
隔震设计
隔震连续梁桥
隧(巷)道
隧道
隧道冻结
隧道动力深浅埋界限
隧道口架梁
隧道工程
隧道式锚碇
隧道支护
隧道突水
隧道跨度
隧道锚
隧道锚碇
隶属函数
隶属度
集中弯矩
集中拌和
集中荷载
集中质量法
集对分析
集成刚度
集成刚度法
集成方法
集成管理
集束式
集束式剪力钉
集水坑
雨流法
雨流计数
雨流计数法
雨量荷载系列
零初始位移法
零号块
零弯矩
零挠度
零活载点
雷诺数
雷诺数效应
雷诺时均湍流模型
雷达图
需求不均衡
需求分析
需求谱
震前病害
震区
震后快速修复
震后快速评估
震后残余变形
震后永久位移
震害
震害分析
震害因素
震害成因分析
震害机理
震害检测
震害特征
震害经验
震害评价方法
震害评估
震害资料
震害遗址
震害防御
震害预测
震浪响应
露点温度法
青岛海湾大桥
青川
青州航道桥
青海省
青藏铁路
青藏高原
青衣江大桥
静三分力系数
静力
静力三分力
静力三分力系数
静力体系
静力凝聚方法
静力分析
静力切割
静力力学性能
静力加载试验
静力可靠度
静力失稳
静力学
静力学特性
静力平衡方程
静力延性能力
静力弹塑性分析
静力弹塑性分析方法
静力弹性稳定性
静力性能
静力拉伸试验
静力水准仪
静力法
静力测试
静力爆破
静力特性
静力状态
静力稳定性
静力系数
静力荷载实验
静力荷载试验
静力行为
静力触探
静力计算
静力试验
静力载荷试验
静力非线性分析
静动分析
静动力响应
静动力性能
静动力测试
静动力特性
静动力试验
静动力载荷试验
静动综合响应
静动载检测试验
静动载试验
静压桩
静定桥梁
静强度分析
静态位移
静态爆破
静态试验
静栽试验
静荷载
静荷载试验
静载
静载荷试验
静载试验
静阵风荷载
静风
静风响应
静风响应分析
静风失稳形态
静风失稳模式
静风稳定
静风稳定性
静风荷载
静风荷载非线性
非一致
非一致地震激励
非一致激励
非保向力
非保向力效应
非刚性桩
非固结
非均匀初应力
非均匀收缩
非均匀收缩徐变
非均匀有理B样条
非均质边坡
非完善接触
非定常
非定常气动力
非对称
非对称叠合梁斜拉桥
非对称断丝
非对称施工
非对称浇筑
非工程桩
非常规合拢顺序
非常规跨径
非平稳
非平稳地震动
非平稳性
非平稳随机振动
非平稳随机过程
非平稳风
非广义单自由度结构
非弹性变形
非弹性连接
非接触测量
非标设计
非概率可靠性
非概率可靠性指标
非正态分布响应
非稳态
非线性
非线性Winkler地基梁模型
非线性优化
非线性作用
非线性函数法
非线性分析
非线性剪切效应
非线性动力分析
非线性动力时程分析
非线性动力时程分析法
非线性动态时程反应法
非线性反应谱
非线性回归分析
非线性地震动力响应分析
非线性地震反应
非线性塑性铰
非线性子系统
非线性屈曲
非线性弹塑性单元
非线性徐变
非线性悬架
非线性拟合
非线性振动
非线性损伤
非线性接触
非线性接触单元
非线性效应
非线性方程
非线性方程解
非线性时程
非线性时程分析
非线性时程分析方法
非线性时程分析法
非线性时程方法
非线性时程法
非线性最小二乘
非线性最小二乘拟合
非线性有限元
非线性有限元分析
非线性有限元理论
非线性有限元程序
非线性松弛损失
非线性桩土相互作用
非线性模糊算法
非线性气动力
非线性温度
非线性温度梯度
非线性理论
非线性稳定
非线性稳定分析
非线性稳定安全系数
非线性粘滞阻尼器
非线性组合梁单元
非线性自激力
非线性行为
非线性规划
非线性迭代算法
非线性静力分析
非线性静力方法
非经典阻尼
非结构化网格
非结构性决策
非自平衡
非规则区域
非规则桥梁
非规则梁桥
非规则简支梁桥
非规则连续刚构桥
非规则连续梁桥
非连续变形
非连续施工
非通航孔
非通航孔桥
非高斯过程
面内-面外振动
面内剪切效应
面内屈曲
面内承载力
面内振动
面内稳定
面内转动
面向目标
面向管养
面外
面外失稳
面外弯曲
面外稳定
面板
面面接触模型
靶距
鞍座
鞍座单元
鞍座抗滑
鞍座顶推
韧脆转变温度
韩国
顶力
顶力同步顶升
顶升
顶升工艺
顶升平移
顶升托换
顶升改造
顶升方案
顶升施工
顶升荷载
顶升误差
顶升高差
顶底板厚度
顶推
顶推位移
顶推力
顶推合龙
顶推技术
顶推措施
顶推支架
顶推施工
顶推曲梁桥
顶推梁体
顶推法
顶推法施工
顶推法架桥
顶推线形
顶推装置
顶推计算
顶推辅助合龙
顶推量
顶板
顶板-纵肋连接接头
顶板与U肋接头
顶板与纵肋焊缝
顶板厚度
顶板开裂
顶进
顶进框架桥
顶进法
顶进涵施工
项升
项推
项板
项目建设
项目管理
顺桥向约束体系
预估模型
预偏
预偏心
预养护
预冷流
预制
预制T梁
预制吊装
预制块
预制墩台
预制墩身
预制小箱梁
预制工艺
预制承台
预制技术
预制拱涵
预制拼装施工法
预制接头
预制施工
预制构件
预制架设法
预制桥墩
预制梁
预制梁场
预制梁板
预制梁架设
预制横隔板
预制法
预制混凝土梁
预制盖梁
预制空心板
预制箱梁
预制精度
预制累积损伤模型
预制线形
预制自保温地热砖
预制节段
预制节段拼装
预制节段拼装施工
预制节段桥墩
预制节段法
预加荷载
预加载
预压
预压缝
预压试验
预埋
预处理
预应力
预应力 CFRP筋材
预应力CFRP/GFRP混杂纤维布
预应力CFRP布
预应力CFRP板
预应力SSWM-M技术
预应力T梁
预应力体系
预应力偏位
预应力孔道
预应力岩锚
预应力工程
预应力度
预应力张拉
预应力张拉次序
预应力张拉阶段
预应力技术
预应力损失
预应力损失偏差率
预应力控制
预应力摩阻损失
预应力效应
预应力效率
预应力斜腿刚架拱
预应力施工
预应力材料
预应力束
预应力束布置
预应力构件
预应力框架
预应力桥梁
预应力次效应
预应力波纹管
预应力测试
预应力混凝二箱梁
预应力混凝土
预应力混凝土T形梁
预应力混凝土T构
预应力混凝土T梁
预应力混凝土地
预应力混凝土斜拉桥
预应力混凝土板梁
预应力混凝土构件
预应力混凝土桁式组合拱桥
预应力混凝土桥
预应力混凝土桥墩
预应力混凝土桥梁
预应力混凝土梁
预应力混凝土梁桥
预应力混凝土槽形梁
预应力混凝土空心板
预应力混凝土空心板梁
预应力混凝土空间组合式滑移模型
预应力混凝土简支T梁
预应力混凝土箱梁
预应力混凝土箱梁桥
预应力混凝土组合单元
预应力混凝土结构
预应力混凝土轨道梁
预应力混凝土连续刚构桥
预应力混凝土连续梁
预应力混凝土连续梁桥
预应力混凝土连续箱梁
预应力混凝土连续箱梁桥
预应力混杂 FRP布
预应力状态
预应力盖梁
预应力砼
预应力砼桥梁
预应力碳-玻混杂纤维布
预应力碳纤维
预应力碳纤维布
预应力碳纤维条带
预应力碳纤维板
预应力空心板桥
预应力空心板梁
预应力筋
预应力筋应力松弛
预应力筋束
预应力简支束
预应力简支梁
预应力管道
预应力管道堵塞
预应力箱梁
预应力索
预应力纤维条带
预应力节段拼装桥墩
预应力荷载
预应力连续刚构桥
预应力连续梁
预应力连续组合梁
预应力钢丝绳
预应力钢束
预应力钢筋
预应力钢筋张拉方式
预应力钢筋混凝土
预应力钢筋混凝土桥
预应力钢绞线
预应力钢绞线网
预应力钢绞线锚固系统
预应力锚索
预应力镦头锚
预应力降低
预应变
预张力
预张力悬索桥
预张弦索
预弯梁
预抬高
预抬高值
预拉力松弛
预拉预顶施工
预拱值
预拱度
预拼线形
预测
预测分析
预测方法
预测模型
预测精度
预留活载发展系数
预留立交桥
预留间隙
预算
预算编制
预裂爆破
预警
预警指标
预警系统
预警阈值
预防
预防性养护
预防性监控
预防性维护
预防措施
预防的方法
预防维修
预顶力
领导概念
频响函数
频域
频域分析
频域分解法
频域法
频域颤振分析
频带内局部样本熵
频带能量
频散曲线
频散特性分析
频率
频率公式
频率变化率
频率变化率比值
频率合成法
频率折减系数
频率指标
频率敏感性指标
频率方程
频率比
频率法
频率计算
频率锁定
频率限值
频率非平稳性
频谱
频谱分析
频谱特性
颗粒流
颗粒流离散元
颜色
颤振
颤振临界状态
颤振临界风速
颤振失稳
颤振导数
颤振形态
颤振性能
颤振控制
颤振机理
颤振稳定性
颤振稳定性能
颤振能量
颤振驱动机理
风
风-汽车-桥梁系统
风-车-桥系统
风-车-桥耦合系统
风-车-线路耦合振动
风-车-轨-桥系统
风-雨致振动
风—车—桥系统
风—车—桥耦合
风一车
风传感器安装位置
风偏角
风剖面
风动试验
风包倒换
风包埋深
风化岩体
风化程度
风区
风压分布
风参数
风向角
风嘴
风嘴形式
风嘴角度
风场
风场实测
风场模拟
风场特性
风场监测系统
风塔
风屏障
风廓线仪
风振
风振减振
风振性能
风振控制
风撑
风攻角
风洞模拟
风洞试验
风浪
风浪耦合
风特性
风环境
风致反应
风致响应
风致扭转振动
风致抖振
风致抖振响应
风致振动
风致漂移
风致车辆事故
风致静力失稳
风致静力扭角
风荷载
风观测
风车桥耦合
风载
风载体型系数
风载激励
风速
风速剖面
风速谱
风速风向联合分布
风险
风险事件
风险估测
风险估计
风险决策
风险分析
风险因子
风险因素
风险因素分析
风险工期
风险损失
风险接受准则
风险控制
风险控制指标
风险概率
风险源清单
风险矩阵
风险矩阵评估方法
风险等级
风险等级估测
风险管控
风险管理
风险要素
风险评价
风险评估
风险评估流程
风险识别
风险重要度
风险降低比值
风障
风雨作用
风雨响应
风雨振
风雨激振
风雨联合作用
飓风
飘浮体系斜拉桥
飞燕式
飞燕式钢管混凝土拱桥
飞艇
飞鸟式
饱和南京细砂
饱和砂土
饱和粉土地基
饱水岩石边坡
首次下沉
首次失效平均时间
首次穿越破坏
首次超越动力可靠度
首次超越破坏机制
首超时间
马口改进
马寨车站大桥
马尔柯夫过程
马尔科夫链
马普托大桥
马歇尔设计方法
马鞍山大桥
马鞍山长江公路大桥
驰振
驰振临界风速
驰振分析
驱动能力
驾驶员行为
验收标准
验算
验算公式
验算指标
验算荷载
验证
验证与确认
验证荷载
骑跨式吊索
骨料咬合
骨料级配
骨架曲线
高Re数
高位拼装
高位落梁
高位锁定形态
高低塔
高低异形刃脚钢围堰
高低温性能
高低腿
高压旋喷
高压旋喷桩
高原大桥
高原高寒
高原高寒地区
高土石坝
高地震区
高塔
高填方
高填方涵洞
高填方路基
高填方路堤
高填路堤
高墩
高墩T梁桥
高墩刚构桥
高墩刚构桥梁
高墩多跨连续钢构桥
高墩大跨
高墩大跨度连续刚构桥
高墩大跨斜拉桥
高墩大跨桥梁
高墩大跨连续刚构
高墩大跨连续刚构桥
高墩桥梁
高墩连续刚构桥
高家花园大桥
高密度聚乙烯
高寒地区
高层建筑
高差
高应变
高应变法
高延性
高延性水泥基复合材料
高弹沥青
高强不锈钢绞线网
高强度
高强度螺栓
高强度螺栓组
高强度螺栓连接
高强度螺栓连接副
高强度钢
高强度钢丝拉索
高强度钢拉杆
高强度钢材
高强度钢筋
高强微膨胀混凝土
高强混凝土
高强混凝土加芯柱
高强混凝土梁
高强渗透性聚合物砂浆
高强特性
高强螺栓
高强螺栓群
高强螺栓连接
高强钢丝
高强钢丝束
高强钢筋
高强钢绞线网
高强钢薄壁箱形截面压杆
高强钢铰线网
高强镀锌钢丝
高性能复合材料
高性能材料
高性能水泥复合混凝土
高性能混凝土
高性能清水混凝土
高性能粉煤灰
高性能结构钢
高性能超大体积混凝土
高性能钢
高截面
高承台桩-独柱墩
高抛免振混凝土
高支架
高支模满堂支架
高效非线性分析
高斯曲率
高斯过程
高斯过程回归
高架区间
高架栈桥
高架桥
高架桥梁
高架浮桥
高架站
高架线
高架结构
高架道路
高柔桥墩
高标号
高桥墩
高桩
高桩承台
高桩承台体系
高桩承台基础
高桩承台桥
高桩承台群桩基础
高桩码头
高次方程
高次谐波
高温
高温作用
高温合龙
高温多雨地区
高温性能
高烈度
高烈度地震区
高烈度震区
高程
高程基准
高程异常
高程控制
高空吊装
高等级公路
高索塔
高缩尺比
高置信低失效
高耐久性
高跨比
高边坡
高边坡桥墩
高速
高速公路
高速公路桥梁
高速公路桥面
高速公路跨线桥
高速公路车辆荷载
高速列车
高速激光道路检测车
高速磁浮列车
高速铁路
高速铁路桥
高速铁路桥梁
高速铁路简支梁桥
高速铁路箱梁
高铁
高铁客运站
高铁框构桥梁
高铁桥梁
高阶交错网格
高阶振型
高阶纵向导波
高阻尼
高阻尼橡胶
高阻尼橡胶支座
高阻尼橡胶隔震支座
高陡山体
高陡斜坡
高陡横坡
高陡边坡
高频测力天平
高风速区
鱼脊连续梁桥
鲁棒性
鲤鱼沱大桥
鸭绿江界河
鹦鹉洲大桥
鹦鹉洲长江大桥
黄冈公铁两用长江大桥
黄土
黄土边坡
黄土高原地区
黄河
黄河中游
黄河大桥
黄河滩地
黄泛区
黄金分割比
黏弹性
黏弹性人工边界
黏弹性边界
黏性
黏性剪切阻尼器
黏性土
黏性土被动土压力理论
黏滞液体阻尼器
黏滞阻尼器
黏结
黏结力
黏结单元
黏结型锚具
黏结应力
黏结式锚具
黏结强度
黏结性能
黏结滑移
黏聚区域模型
黏贴C/GFRP加固
鼓包
齿坎效应
齿板锚固区
龄期
龄期差
龙格-库塔法
龙格-库塔积分
龙永高速
龙江大桥
龙透关大桥
龙门吊
龙门吊机
龙门架